
 ANSYS Academic Research                           


 *-------------------------------------------------------------*
 |                                                             |
 |   W E L C O M E   T O   T H E   A N S Y S   P R O G R A M   |
 |                                                             |
 *-------------------------------------------------------------*




 ***************************************************************
 *                  ANSYS 12.1 LEGAL NOTICES                   *
 ***************************************************************
 *                                                             *
 * COPYRIGHT AND TRADEMARK INFORMATION                         *
 *                                                             *
 * Copyright 2009 SAS IP, Inc.  All rights reserved.           *
 * Unauthorized use, distribution or duplication is            *
 * prohibited.                                                 *
 *                                                             *
 * See the ANSYS, Inc. online documentation or the ANSYS, Inc. *
 * documentation CD for the complete Legal Notice.             *
 *                                                             *
 ***************************************************************
 *                                                             *
 * DISCLAIMER NOTICE                                           *
 *                                                             *
 * THIS ANSYS SOFTWARE PRODUCT AND PROGRAM DOCUMENTATION       *
 * EMBODY TRADE SECRETS AND CONFIDENTIAL AND PROPRIETARY       *
 * INFORMATION OF ANSYS, INC., ITS SUBSIDIARIES, OR LICENSORS. *
 * The software products and documentation are furnished by    *
 * ANSYS, Inc. or its subsidiaries under a software license    *
 * agreement that contains provisions concerning               *
 * non-disclosure, copying, length and nature of use,          *
 * compliance with exporting laws, warranties, disclaimers,    *
 * limitations of liability, and remedies, and other           *
 * provisions.  The software products and documentation may be *
 * used, disclosed, transferred, or copied only in accordance  *
 * with the terms and conditions of that software license      *
 * agreement.                                                  *
 *                                                             *
 * ANSYS, Inc. and ANSYS Europe, Ltd. are UL registered        *
 * ISO 9001:2000 Companies.                                    *
 *                                                             *
 ***************************************************************
 *                                                             *
 * U.S. GOVERNMENT RIGHTS                                      *
 *                                                             *
 * For U.S. Government users, except as specifically granted   *
 * by the ANSYS, Inc. software license agreement, the use,     *
 * duplication, or disclosure by the United States Government  *
 * is subject to restrictions stated in the ANSYS, Inc.        *
 * software license agreement and FAR 12.212 (for non-DOD      *
 * licenses).                                                  *
 *                                                             *
 ***************************************************************



          *****  ANSYS COMMAND LINE ARGUMENTS  *****
  INITIAL JOBNAME              = file                                                                                                                                                                                                                                                    
  BATCH MODE REQUESTED (-b)    = LIST
  INPUT FILE COPY MODE (-c)    = COPY
  DESIGNXPLORER REQUESTED
  START-UP FILE MODE           = READ  
  STOP FILE MODE               = READ  
  LANGUAGE                     = en-us               
  INITIAL DIRECTORY = C:\Users\ecslogon\Desktop\trail

 00416040          VERSION=WINDOWS x64     RELEASE= 12.1     UP20091102
 CURRENT JOBNAME=file  18:06:15  JUL 11, 2017 CP=      0.858

     1  /batch  
     2  /config,noeldb,1     ! force off writing results to database
     3  *get,_wallstrt,active,,time,wall
     4  ! ANSYS input file written by Workbench version 17.2 RELEASE
     5  ! File used for geometry attach: E:\Independent Study Slater\Ventricle-r2-Shar-4-16-17_files\dp0\Geom\DM\Geom.agdb  
     6  /title,Ventricle-r2-Shar-4-16-17--Transient (B5)
     7  ! ****** Begin Custom Load Command Snippet ******   
     8  /COM, ACT Extensions:   
     9  /COM,     MechanicalDropTest, 2.0   
    10  /COM,     f0fd899f-9d88-4f46-8cf1-36bf5c218d65, wbex
    11  /COM,   
    12  ! ****** End   Custom Load Command Snippet ******   
    13  *DIM,_wb_ProjectScratch_dir,string,248  
    14  _wb_ProjectScratch_dir(1) = 'E:\Independent Study Slater\Ventricle-r2-Shar-4-16-17_files\dp0\SYS\MECH\' 
    15  *DIM,_wb_SolverFiles_dir,string,248 
    16  _wb_SolverFiles_dir(1) = 'E:\Independent Study Slater\Ventricle-r2-Shar-4-16-17_files\dp0\SYS\MECH\'
    17  *DIM,_wb_userfiles_dir,string,248   
    18  _wb_userfiles_dir(1) = 'E:\Independent Study Slater\Ventricle-r2-Shar-4-16-17_files\user_files\'
    19  /com,--- Data in consistent MKS units. See Solving Units in the help system for more information.   
    20  /units,MKS  
    21  /nopr   
    22  /wb,file,start              !  signify a WB generated input file
    23  /prep7  
    24  ! Turn off shape checking because checks already performed inside WB mesher.
    25  ! See help system for more information. 
    26  SHPP,OFF,,NOWARN
 ***** LISTING SUSPENDED *****
 ***** LISTING RESUMED *****
  7672  /wb,load,start             !  starting to send loads
  7673  /com,*********** Fixed Supports *********** 
  7674  CMBLOCK,_FIXEDSU,NODE,       92 
  7675  (8i10)  
  7676          83        84        85        86        87        88       101       102
  7677         103       104       105       106       376       377       378       379
  7678         380       381       382       383       384       386       405       406
  7679         408       409      1708      1709      1710      1711      1712      1713
  7680        1714      1750      1751      1752      1753      1754      1755      1782
  7681        1983      1996      1997      1998      1999      2000      2001      2037
  7682        2038      2039      2040      2041      2042      2043      5491      5492
  7683        5493      5494      5495      5496      5497      5498      5499      5500
  7684        5501      5502      5504      5574      5575      5576      5577      5578
  7685        5579      5580      5581      5582      5583      5584      5585      5639
  7686        5933      5946      5947      5948      5949      5950      5988      5989
  7687        5990      5991      5992      5993
  7688  cmsel,s,_FIXEDSU
  7689  d,all,all   
  7690  nsel,all
  7691  /com,********* Frictionless Supports Z *********
  7692  CMBLOCK,_FRICSUZ,NODE,     5088 
  7693  (8i10)  
  7694           1         2         3         4         5         6         7         8
  7695           9        10        11        12        13        14        15        16
  7696          17        18        19        20        21        22        23        24
  7697          25        26        27        28        29        30        31        32
  7698          33        34        35        36        37        38        39        40
  7699          41        42        43        44        45        46        47        48
  7700          49        50        51        52        53        54        55        56
  7701          57        58        59        60        61        62        63        64
  7702          65        66        67        68        69        70        71        72
  7703          73        74        75        76        77        78        79        80
  7704          81        82        89        90        91        92        93        94
  7705          95        96        97        98        99       100       107       108
  7706         109       110       111       112       113       114       115       116
  7707         117       118       119       120       121       122       123       124
  7708         125       126       127       128       129       130       131       132
  7709         133       134       135       136       137       138       139       140
  7710         141       142       143       144       145       147       148       150
  7711         151       152       153       155       156       157       159       160
  7712         161       163       164       165       167       168       169       171
  7713         172       173       175       176       177       179       180       182
  7714         183       184       186       187       189       190       192       193
  7715         194       195       197       198       199       201       202       203
  7716         205       206       207       209       210       211       213       214
  7717         215       217       218       219       221       222       223       225
  7718         226       227       229       230       232       233       234       235
  7719         236       237       238       239       240       241       242       243
  7720         244       245       246       247       248       249       250       251
  7721         252       253       254       255       256       257       258       259
  7722         260       261       262       263       264       265       266       267
  7723         268       269       270       271       272       273       274       275
  7724         276       277       278       279       280       281       282       283
  7725         284       285       286       287       288       289       290       291
  7726         292       293       294       295       296       297       298       299
  7727         300       301       302       303       305       307       309       311
  7728         313       315       317       319       321       323       325       327
  7729         329       331       333       335       337       338       340       342
  7730         344       346       348       350       352       354       356       358
  7731         360       362       364       366       368       370       372       374
  7732         385       387       389       391       393       395       398       399
  7733         400       401       402       403       404       407       410       411
  7734         412       413       414       415       416       417       418       419
  7735         420       421       422       423       424       425       426       427
  7736         428       429       430       431       432       433       434       435
  7737         436       437       438       439       440       441       442       443
  7738         444       445       446       447       448       449       450       451
  7739         452       453       454       455       456       457       458       459
  7740         460       461       462       463       464       465       466       467
  7741         468       469       470       471       472       473       474       475
  7742         476       477       478       479       480       481       482       483
  7743         484       485       486       487       488       489       490       491
  7744         492       493       494       495       496       497       498       499
  7745         500       501       502       503       504       505       506       507
  7746         508       509       510       511       512       513       514       515
  7747         516       517       518       519       520       521       522       523
  7748         524       525       526       527       528       529       530       531
  7749         532       533       534       535       536       537       538       539
  7750         540       541       542       543       544       545       546       547
  7751         548       549       550       551       552       553       554       555
  7752         556       557       558       559       560       561       562       563
  7753         564       565       566       567       568       569       570       571
  7754         572       573       574       575       576       577       578       579
  7755         580       581       582       583       584       585       586       587
  7756         588       589       590       591       592       593       594       595
  7757         596       597       598       599       600       601       602       603
  7758         604       605       606       607       608       609       610       611
  7759         612       613       614       615       616       617       618       619
  7760         620       621       622       623       624       625       626       627
  7761         628       629       630       631       632       633       634       635
  7762         636       637       638       639       640       641       642       643
  7763         644       645       646       647       648       649       650       651
  7764         652       653       654       655       656       657       658       659
  7765         660       661       662       663       664       665       666       667
  7766         668       669       670       671       672       673       674       675
  7767         676       677       678       679       680       681       682       683
  7768         684       685       686       687       688       689       690       691
  7769         692       693       694       695       696       697       698       699
  7770         700       701       702       703       704       705       706       707
  7771         708       709       710       711       712       713       714       715
  7772         716       717       718       719       720       721       722       723
  7773         724       725       726       727       728       729       730       731
  7774         732       733       734       735       736       737       738       739
  7775         740       741       742       743       744       745       746       747
  7776         748       749       750       751       752       753       754       755
  7777         756       757       758       759       760       761       762       763
  7778         764       765       766       767       768       769       770       771
  7779         772       773       774       775       776       777       778       779
  7780         780       781       782       783       784       785       786       787
  7781         788       789       790       791       792       793       794       795
  7782         796       797       798       799       800       801       802       803
  7783         804       805       806       807       808       809       810       811
  7784         812       813       814       815       816       817       818       819
  7785         820       821       822       823       824       825       826       827
  7786         828       829       830       831       832       833       834       835
  7787         836       837       838       839       840       841       842       843
  7788         844       845       846       847       848       849       850       851
  7789         852       853       854       855       856       857       858       859
  7790         860       861       862       863       864       865       866       867
  7791         868       869       870       871       872       873       874       875
  7792         876       877       878       879       880       881       882       883
  7793         884       885       886       887       888       889       890       891
  7794         892       893       894       895       896       897       898       899
  7795         900       901       902       903       904       905       906       907
  7796         908       909       910       911       912       913       914       915
  7797         916       917       918       919       920       921       922       923
  7798         924       925       926       927       928       929       930       931
  7799         932       933       934       935       936       937       938       939
  7800         940       941       942       943       944       945       946       947
  7801         948       949       950       951       952       953       954       955
  7802         956       957       958       959       960       961       962       963
  7803         964       965       966       967       968       969       970       971
  7804         972       973       974       975       976       977       978       979
  7805         980       981       982       983       984       985       986       987
  7806         988       989       990       991       992       993       994       995
  7807         996       997       998       999      1000      1001      1002      1003
  7808        1004      1005      1006      1007      1008      1009      1010      1011
  7809        1012      1013      1014      1015      1016      1017      1018      1019
  7810        1020      1021      1022      1023      1024      1025      1026      1027
  7811        1028      1029      1030      1031      1032      1033      1034      1035
  7812        1036      1037      1038      1039      1040      1041      1042      1043
  7813        1044      1045      1046      1047      1048      1049      1050      1051
  7814        1052      1053      1054      1055      1056      1057      1058      1059
  7815        1060      1061      1062      1063      1064      1065      1066      1067
  7816        1068      1069      1070      1071      1072      1073      1074      1075
  7817        1076      1077      1078      1079      1080      1081      1082      1083
  7818        1084      1085      1086      1087      1088      1089      1090      1091
  7819        1092      1093      1094      1095      1096      1097      1098      1099
  7820        1100      1101      1102      1103      1104      1105      1106      1107
  7821        1108      1109      1110      1111      1112      1113      1114      1115
  7822        1116      1117      1118      1119      1120      1121      1122      1123
  7823        1124      1125      1126      1127      1128      1129      1130      1131
  7824        1132      1133      1134      1135      1136      1137      1138      1139
  7825        1140      1141      1142      1143      1144      1145      1146      1147
  7826        1148      1149      1150      1151      1152      1153      1154      1155
  7827        1156      1157      1158      1159      1160      1161      1162      1163
  7828        1164      1165      1166      1167      1168      1169      1170      1171
  7829        1172      1173      1174      1175      1176      1177      1178      1179
  7830        1180      1181      1182      1183      1184      1185      1186      1187
  7831        1188      1189      1190      1191      1192      1193      1194      1195
  7832        1196      1197      1198      1199      1200      1201      1202      1203
  7833        1204      1205      1206      1207      1208      1209      1210      1211
  7834        1212      1213      1214      1215      1216      1217      1218      1219
  7835        1220      1221      1222      1223      1224      1225      1226      1227
  7836        1228      1229      1230      1231      1232      1233      1234      1235
  7837        1236      1237      1238      1239      1240      1241      1242      1243
  7838        1244      1245      1246      1247      1248      1249      1250      1251
  7839        1252      1253      1254      1255      1256      1257      1258      1259
  7840        1260      1261      1262      1263      1264      1265      1266      1267
  7841        1268      1269      1270      1271      1272      1273      1274      1275
  7842        1276      1277      1278      1279      1280      1281      1282      1283
  7843        1284      1285      1286      1287      1288      1289      1290      1291
  7844        1292      1293      1294      1295      1296      1297      1298      1299
  7845        1300      1301      1302      1303      1304      1305      1306      1307
  7846        1308      1309      1310      1311      1312      1313      1314      1315
  7847        1316      1317      1318      1319      1320      1321      1322      1323
  7848        1324      1325      1326      1327      1328      1329      1330      1331
  7849        1332      1333      1334      1335      1336      1337      1338      1339
  7850        1340      1341      1342      1343      1344      1345      1346      1347
  7851        1348      1349      1350      1351      1352      1353      1354      1355
  7852        1356      1357      1358      1359      1360      1361      1362      1363
  7853        1364      1365      1366      1367      1368      1369      1370      1371
  7854        1372      1373      1374      1375      1376      1377      1378      1379
  7855        1380      1381      1382      1383      1384      1385      1386      1387
  7856        1388      1389      1390      1391      1392      1393      1394      1395
  7857        1396      1397      1398      1399      1400      1401      1402      1403
  7858        1404      1405      1406      1407      1408      1409      1410      1411
  7859        1412      1413      1414      1415      1416      1417      1418      1419
  7860        1420      1421      1422      1423      1424      1425      1426      1427
  7861        1428      1429      1430      1431      1432      1433      1434      1435
  7862        1436      1437      1438      1439      1440      1441      1442      1443
  7863        1444      1445      1446      1447      1448      1449      1450      1451
  7864        1452      1453      1454      1455      1456      1457      1458      1459
  7865        1460      1461      1462      1463      1464      1465      1466      1467
  7866        1468      1469      1470      1471      1472      1473      1474      1475
  7867        1476      1477      1478      1479      1480      1481      1482      1483
  7868        1484      1485      1486      1487      1488      1489      1490      1491
  7869        1492      1493      1494      1495      1496      1497      1498      1499
  7870        1500      1501      1502      1503      1504      1505      1506      1507
  7871        1508      1509      1510      1511      1512      1513      1514      1515
  7872        1516      1517      1518      1519      1520      1521      1522      1523
  7873        1524      1525      1526      1527      1528      1529      1530      1531
  7874        1532      1533      1534      1535      1536      1537      1538      1539
  7875        1540      1541      1542      1543      1544      1545      1546      1547
  7876        1548      1549      1550      1551      1552      1553      1554      1555
  7877        1556      1557      1558      1559      1560      1561      1562      1563
  7878        1564      1565      1566      1567      1568      1569      1570      1571
  7879        1572      1573      1574      1575      1576      1577      1578      1579
  7880        1580      1581      1582      1583      1584      1585      1586      1587
  7881        1588      1589      1590      1591      1592      1593      1594      1595
  7882        1596      1597      1598      1599      1600      1601      1602      1603
  7883        1604      1605      1606      1607      1608      1609      1610      1611
  7884        1612      1613      1614      1615      1616      1617      1618      1619
  7885        1620      1621      1622      1623      1624      1625      1626      1627
  7886        1628      1629      1630      1631      1632      1633      1634      1635
  7887        1636      1637      1638      1639      1640      1641      1642      1643
  7888        1644      1645      1646      1647      1648      1649      1650      1651
  7889        1652      1653      1654      1655      1656      1657      1658      1659
  7890        1660      1661      1662      1663      1664      1665      1666      1667
  7891        1668      1669      1670      1671      1672      1673      1674      1675
  7892        1676      1677      1678      1679      1680      1681      1682      1683
  7893        1684      1685      1686      1687      1688      1689      1690      1691
  7894        1692      1693      1694      1695      1696      1697      1698      1699
  7895        1700      1701      1702      1703      1704      1705      1706      1707
  7896        1715      1716      1717      1718      1719      1720      1721      1722
  7897        1723      1724      1725      1726      1727      1728      1729      1730
  7898        1731      1732      1733      1734      1735      1736      1737      1738
  7899        1739      1740      1741      1742      1743      1744      1745      1746
  7900        1747      1748      1749      1756      1757      1758      1759      1760
  7901        1761      1762      1763      1764      1765      1766      1767      1768
  7902        1769      1770      1771      1772      1773      1774      1775      1776
  7903        1777      1778      1779      1780      1781      1783      1784      1785
  7904        1786      1787      1788      1789      1790      1791      1792      1793
  7905        1794      1795      1796      1797      1798      1799      1800      1801
  7906        1802      1803      1804      1805      1806      1807      1808      1809
  7907        1810      1811      1812      1813      1814      1815      1816      1817
  7908        1818      1819      1820      1821      1822      1823      1824      1825
  7909        1826      1827      1828      1829      1830      1831      1832      1833
  7910        1834      1835      1836      1837      1838      1839      1840      1841
  7911        1842      1843      1844      1845      1846      1847      1848      1849
  7912        1850      1851      1852      1853      1854      1855      1856      1857
  7913        1858      1859      1860      1861      1862      1863      1864      1865
  7914        1866      1867      1868      1869      1870      1871      1872      1873
  7915        1874      1875      1876      1877      1878      1879      1880      1881
  7916        1882      1883      1884      1885      1886      1887      1888      1889
  7917        1890      1891      1892      1893      1894      1895      1896      1897
  7918        1898      1899      1900      1901      1902      1903      1904      1905
  7919        1906      1907      1908      1909      1910      1911      1912      1913
  7920        1914      1915      1916      1917      1918      1919      1920      1921
  7921        1922      1923      1924      1925      1926      1927      1928      1929
  7922        1930      1931      1932      1933      1934      1935      1936      1937
  7923        1938      1939      1940      1941      1942      1943      1944      1945
  7924        1946      1947      1948      1949      1950      1951      1952      1953
  7925        1954      1955      1956      1957      1958      1959      1960      1961
  7926        1962      1963      1964      1965      1966      1967      1968      1969
  7927        1970      1971      1972      1973      1974      1975      1976      1977
  7928        1978      1979      1980      1981      1982      1984      1985      1986
  7929        1987      1988      1989      1990      1991      1992      1993      1994
  7930        1995      2002      2003      2004      2005      2006      2007      2008
  7931        2009      2010      2011      2012      2013      2014      2015      2016
  7932        2017      2018      2019      2020      2021      2022      2023      2024
  7933        2025      2026      2027      2028      2029      2030      2031      2032
  7934        2033      2034      2035      2036      2044      2045      2046      2047
  7935        2048      2049      2050      2051      2052      2053      2054      2055
  7936        2056      2057      2058      2059      2060      2061      2062      2063
  7937        2064      2065      2066      2067      2068      2069      2070      2071
  7938        2072      2073      2074      2075      2076      2077      2078      2079
  7939        2080      2081      2082      2083      2084      2085      2086      2087
  7940        2088      2089      2090      2091      2092      2093      2094      2095
  7941        2096      2097      2098      2099      2100      2101      2102      2103
  7942        2104      2105      2106      2107      2108      2109      2110      2111
  7943        2112      2113      2114      2115      2116      2117      2118      2119
  7944        2120      2121      2122      2123      2124      2125      2126      2127
  7945        2128      2130      2131      2132      2133      2135      2136      2137
  7946        2139      2140      2141      2143      2144      2146      2147      2148
  7947        2150      2151      2152      2153      2155      2156      2157      2159
  7948        2160      2161      2163      2164      2165      2167      2168      2169
  7949        2171      2172      2173      2175      2176      2177      2179      2180
  7950        2181      2183      2184      2185      2187      2188      2189      2191
  7951        2192      2193      2195      2196      2197      2199      2200      2201
  7952        2203      2204      2205      2207      2208      2209      2211      2212
  7953        2213      2215      2216      2217      2219      2220      2221      2223
  7954        2224      2225      2227      2228      2229      2231      2232      2233
  7955        2235      2236      2237      2239      2240      2241      2243      2244
  7956        2245      2247      2248      2249      2251      2252      2253      2255
  7957        2256      2257      2259      2260      2261      2263      2264      2265
  7958        2267      2268      2269      2271      2272      2273      2275      2276
  7959        2277      2279      2280      2281      2283      2284      2285      2287
  7960        2288      2289      2291      2292      2293      2295      2296      2297
  7961        2299      2300      2301      2303      2304      2305      2307      2308
  7962        2309      2311      2312      2313      2315      2316      2317      2319
  7963        2320      2321      2323      2324      2325      2327      2328      2329
  7964        2331      2332      2333      2335      2336      2337      2339      2340
  7965        2341      2343      2344      2345      2347      2348      2349      2351
  7966        2352      2353      2355      2356      2357      2359      2360      2361
  7967        2363      2364      2365      2367      2368      2369      2371      2372
  7968        2373      2375      2376      2377      2379      2380      2381      2383
  7969        2384      2385      2387      2388      2389      2391      2392      2393
  7970        2395      2396      2397      2399      2400      2401      2403      2404
  7971        2405      2407      2408      2409      2411      2412      2413      2415
  7972        2416      2417      2419      2420      2421      2423      2424      2425
  7973        2427      2428      2429      2431      2432      2433      2435      2436
  7974        2437      2439      2440      2441      2443      2444      2445      2447
  7975        2448      2449      2451      2452      2453      2455      2456      2457
  7976        2459      2460      2461      2463      2464      2465      2467      2468
  7977        2469      2471      2472      2473      2475      2476      2477      2479
  7978        2480      2481      2483      2484      2485      2487      2488      2489
  7979        2491      2492      2493      2495      2496      2497      2499      2500
  7980        2501      2503      2504      2505      2507      2508      2509      2511
  7981        2512      2513      2515      2516      2517      2519      2520      2521
  7982        2523      2524      2525      2527      2528      2529      2531      2532
  7983        2533      2535      2536      2537      2539      2540      2541      2543
  7984        2544      2545      2547      2548      2549      2551      2552      2553
  7985        2555      2556      2557      2559      2560      2561      2563      2564
  7986        2565      2567      2568      2569      2571      2572      2573      2575
  7987        2576      2578      2579      2580      2581      2583      2584      2585
  7988        2587      2588      2590      2591      2593      2594      2596      2597
  7989        2599      2600      2602      2603      2605      2606      2608      2609
  7990        2611      2612      2614      2615      2617      2618      2620      2621
  7991        2623      2624      2626      2627      2629      2630      2632      2633
  7992        2635      2636      2638      2639      2641      2642      2644      2645
  7993        2647      2648      2650      2651      2653      2654      2656      2657
  7994        2659      2660      2662      2663      2665      2666      2668      2669
  7995        2671      2672      2674      2675      2677      2678      2680      2681
  7996        2683      2684      2686      2687      2689      2690      2692      2693
  7997        2695      2696      2698      2699      2701      2702      2704      2705
  7998        2707      2708      2710      2711      2713      2714      2716      2717
  7999        2719      2720      2722      2723      2725      2726      2728      2729
  8000        2731      2732      2734      2735      2737      2738      2740      2741
  8001        2743      2744      2746      2747      2749      2750      2752      2753
  8002        2755      2756      2758      2759      2761      2762      2764      2765
  8003        2767      2768      2770      2771      2773      2774      2776      2777
  8004        2779      2780      2782      2783      2785      2786      2788      2789
  8005        2791      2792      2794      2795      2797      2798      2800      2801
  8006        2803      2804      2806      2807      2809      2810      2812      2813
  8007        2815      2816      2818      2819      2821      2822      2824      2825
  8008        2827      2828      2830      2831      2833      2834      2836      2837
  8009        2839      2840      2842      2843      2845      2846      2848      2849
  8010        2851      2852      2854      2855      2857      2858      2860      2861
  8011        2863      2864      2866      2867      2869      2870      2872      2873
  8012        2875      2876      2878      2879      2881      2882      2884      2885
  8013        2887      2888      2890      2891      2893      2894      2896      2897
  8014        2899      2900      2902      2904      2905      2906      2908      2909
  8015        2910      2912      2913      2915      2916      2918      2919      2921
  8016        2922      2924      2925      2927      2928      2930      2931      2933
  8017        2934      2936      2937      2939      2940      2942      2943      2945
  8018        2946      2948      2949      2951      2952      2954      2955      2957
  8019        2958      2960      2961      2963      2964      2966      2967      2969
  8020        2970      2972      2973      2975      2976      2978      2979      2981
  8021        2982      2984      2985      2987      2988      2990      2991      2993
  8022        2994      2996      2997      2999      3000      3002      3003      3005
  8023        3006      3008      3009      3011      3012      3014      3015      3017
  8024        3018      3020      3021      3023      3024      3026      3027      3029
  8025        3030      3032      3033      3035      3036      3038      3039      3041
  8026        3042      3044      3045      3047      3048      3050      3051      3053
  8027        3054      3056      3057      3059      3060      3062      3063      3065
  8028        3066      3068      3069      3071      3072      3074      3075      3077
  8029        3078      3080      3081      3083      3084      3086      3087      3089
  8030        3090      3092      3093      3095      3096      3098      3099      3101
  8031        3102      3104      3105      3107      3108      3110      3111      3113
  8032        3114      3116      3117      3119      3120      3122      3123      3125
  8033        3126      3128      3129      3131      3132      3134      3135      3137
  8034        3138      3140      3141      3143      3144      3146      3147      3149
  8035        3150      3152      3153      3155      3156      3158      3159      3161
  8036        3162      3164      3165      3167      3168      3170      3171      3173
  8037        3174      3176      3177      3179      3180      3182      3183      3185
  8038        3186      3188      3189      3191      3192      3194      3195      3197
  8039        3198      3200      3201      3203      3204      3206      3207      3209
  8040        3210      3212      3213      3215      3216      3218      3219      3221
  8041        3222      3224      3225      3227      3229      3230      3231      3233
  8042        3234      3235      3237      3238      3240      3241      3243      3244
  8043        3246      3247      3249      3250      3252      3253      3255      3256
  8044        3258      3259      3261      3262      3264      3265      3267      3268
  8045        3270      3271      3273      3274      3276      3277      3279      3280
  8046        3282      3283      3285      3286      3288      3289      3291      3292
  8047        3294      3295      3297      3298      3300      3301      3303      3304
  8048        3306      3307      3309      3310      3312      3313      3315      3316
  8049        3318      3319      3321      3322      3324      3325      3327      3328
  8050        3330      3331      3333      3334      3336      3337      3339      3340
  8051        3342      3343      3345      3346      3348      3349      3351      3352
  8052        3354      3355      3357      3358      3360      3361      3363      3364
  8053        3366      3367      3369      3370      3372      3373      3375      3376
  8054        3378      3379      3381      3382      3384      3385      3387      3388
  8055        3390      3391      3393      3394      3396      3397      3399      3400
  8056        3402      3403      3405      3406      3408      3409      3411      3412
  8057        3414      3415      3417      3418      3420      3421      3423      3424
  8058        3426      3427      3429      3430      3432      3433      3435      3436
  8059        3438      3439      3441      3442      3444      3445      3447      3448
  8060        3450      3451      3453      3454      3456      3457      3459      3460
  8061        3462      3463      3465      3466      3468      3469      3471      3472
  8062        3474      3475      3477      3478      3480      3481      3483      3484
  8063        3486      3487      3489      3490      3492      3493      3495      3496
  8064        3498      3499      3501      3502      3504      3505      3507      3508
  8065        3510      3511      3513      3514      3516      3517      3519      3520
  8066        3522      3523      3525      3526      3528      3529      3531      3532
  8067        3534      3535      3537      3538      3540      3541      3543      3544
  8068        3546      3547      3549      3550      3552      3554      3555      3557
  8069        3558      3559      3561      3562      3564      3565      3567      3568
  8070        3570      3571      3573      3574      3576      3577      3579      3580
  8071        3582      3583      3585      3586      3588      3589      3591      3592
  8072        3594      3595      3597      3598      3600      3601      3603      3604
  8073        3606      3607      3609      3610      3612      3613      3615      3616
  8074        3618      3619      3621      3622      3624      3625      3627      3628
  8075        3630      3631      3633      3634      3636      3637      3639      3640
  8076        3642      3643      3645      3646      3648      3649      3651      3652
  8077        3654      3655      3657      3658      3660      3661      3663      3664
  8078        3666      3667      3669      3670      3672      3673      3675      3676
  8079        3678      3679      3681      3682      3684      3685      3687      3688
  8080        3690      3691      3693      3694      3696      3697      3699      3700
  8081        3702      3703      3705      3706      3708      3709      3711      3712
  8082        3714      3715      3717      3718      3720      3721      3723      3724
  8083        3726      3727      3729      3730      3732      3733      3735      3736
  8084        3738      3739      3741      3742      3744      3745      3747      3748
  8085        3750      3751      3753      3754      3756      3757      3759      3760
  8086        3762      3763      3765      3766      3768      3769      3771      3772
  8087        3774      3775      3777      3778      3780      3781      3783      3784
  8088        3786      3787      3789      3790      3792      3793      3795      3796
  8089        3798      3799      3801      3802      3804      3805      3807      3808
  8090        3810      3811      3813      3814      3816      3817      3819      3820
  8091        3822      3823      3825      3826      3828      3829      3831      3832
  8092        3834      3835      3837      3838      3840      3841      3843      3844
  8093        3846      3847      3849      3850      3852      3853      3855      3856
  8094        3858      3859      3861      3862      3864      3865      3867      3869
  8095        3871      3874      3875      3876      3878      3879      3880      3882
  8096        3883      3885      3886      3888      3890      3891      3892      3894
  8097        3895      3896      3898      3899      3901      3902      3904      3906
  8098        3907      3908      3910      3911      3912      3914      3915      3917
  8099        3918      3920      3922      3923      3924      3926      3927      3928
  8100        3930      3931      3933      3934      3936      3938      3939      3940
  8101        3942      3943      3944      3946      3947      3949      3950      3952
  8102        3954      3955      3956      3958      3959      3960      3962      3963
  8103        3965      3966      3968      3970      3971      3972      3974      3975
  8104        3976      3978      3979      3981      3982      3984      3986      3987
  8105        3988      3990      3991      3992      3994      3995      3997      3998
  8106        4000      4002      4003      4005      4006      4007      4009      4010
  8107        4012      4013      4015      4017      4018      4019      4020      4021
  8108        4022      4023      4024      4025      4026      4027      4028      4029
  8109        4030      4031      4032      4033      4034      4035      4036      4037
  8110        4038      4039      4040      4041      4042      4043      4044      4045
  8111        4046      4047      4048      4049      4050      4051      4052      4053
  8112        4054      4055      4056      4057      4058      4059      4060      4061
  8113        4062      4063      4064      4065      4066      4067      4068      4069
  8114        4070      4071      4072      4073      4074      4075      4076      4077
  8115        4078      4079      4080      4081      4082      4083      4084      4085
  8116        4086      4087      4088      4089      4090      4091      4092      4093
  8117        4094      4095      4096      4097      4098      4099      4100      4101
  8118        4102      4103      4104      4105      4106      4107      4108      4109
  8119        4110      4111      4112      4113      4114      4115      4116      4117
  8120        4118      4119      4120      4121      4122      4123      4124      4125
  8121        4126      4127      4128      4129      4130      4131      4132      4133
  8122        4134      4135      4136      4137      4138      4139      4140      4141
  8123        4142      4143      4144      4145      4146      4147      4148      4149
  8124        4150      4151      4152      4153      4154      4155      4156      4157
  8125        4158      4159      4160      4161      4162      4163      4164      4165
  8126        4166      4167      4168      4169      4170      4171      4172      4173
  8127        4174      4175      4176      4177      4178      4179      4180      4181
  8128        4182      4183      4184      4185      4186      4187      4188      4189
  8129        4190      4191      4192      4193      4194      4195      4196      4197
  8130        4198      4199      4200      4201      4202      4203      4204      4205
  8131        4206      4207      4208      4209      4210      4211      4212      4213
  8132        4214      4215      4216      4217      4218      4219      4220      4221
  8133        4222      4223      4224      4225      4226      4227      4228      4229
  8134        4230      4231      4232      4233      4234      4235      4236      4237
  8135        4238      4239      4240      4241      4242      4243      4244      4245
  8136        4246      4247      4248      4249      4250      4251      4252      4253
  8137        4254      4255      4256      4257      4258      4259      4260      4261
  8138        4262      4263      4264      4265      4266      4267      4268      4269
  8139        4270      4271      4272      4273      4274      4275      4276      4277
  8140        4278      4279      4280      4281      4282      4283      4284      4285
  8141        4286      4287      4288      4289      4290      4291      4292      4293
  8142        4294      4295      4296      4297      4298      4299      4300      4301
  8143        4302      4303      4304      4305      4306      4307      4308      4309
  8144        4310      4311      4312      4313      4314      4315      4316      4317
  8145        4318      4319      4320      4321      4322      4323      4324      4325
  8146        4326      4327      4328      4329      4330      4331      4332      4333
  8147        4334      4335      4336      4337      4338      4339      4340      4341
  8148        4342      4343      4344      4345      4346      4347      4348      4349
  8149        4350      4351      4352      4353      4354      4355      4356      4357
  8150        4358      4359      4360      4361      4362      4363      4364      4365
  8151        4366      4367      4368      4369      4370      4371      4372      4373
  8152        4374      4375      4376      4377      4378      4379      4380      4381
  8153        4382      4383      4384      4385      4386      4387      4388      4389
  8154        4390      4391      4392      4393      4394      4395      4396      4397
  8155        4398      4399      4400      4401      4402      4403      4404      4405
  8156        4406      4407      4408      4409      4410      4411      4412      4413
  8157        4414      4415      4416      4417      4418      4419      4420      4421
  8158        4422      4423      4424      4425      4426      4427      4428      4429
  8159        4430      4431      4432      4433      4434      4435      4436      4437
  8160        4438      4439      4440      4441      4442      4443      4444      4445
  8161        4446      4447      4448      4449      4450      4451      4452      4453
  8162        4454      4455      4456      4457      4458      4459      4460      4461
  8163        4462      4463      4464      4465      4466      4467      4468      4469
  8164        4470      4471      4472      4473      4474      4475      4476      4477
  8165        4478      4479      4480      4481      4482      4483      4484      4485
  8166        4486      4487      4488      4489      4490      4491      4492      4493
  8167        4494      4495      4496      4497      4498      4499      4500      4501
  8168        4502      4503      4504      4505      4506      4507      4508      4509
  8169        4510      4511      4512      4513      4514      4515      4516      4517
  8170        4518      4519      4520      4521      4522      4523      4524      4525
  8171        4526      4527      4528      4529      4530      4531      4532      4533
  8172        4534      4535      4536      4537      4538      4539      4540      4541
  8173        4542      4543      4544      4545      4546      4547      4548      4549
  8174        4550      4551      4552      4553      4554      4555      4556      4557
  8175        4558      4559      4560      4561      4562      4563      4564      4565
  8176        4566      4567      4568      4569      4570      4571      4572      4573
  8177        4574      4575      4576      4577      4578      4579      4580      4581
  8178        4582      4583      4584      4585      4586      4587      4588      4589
  8179        4590      4591      4592      4593      4594      4595      4596      4597
  8180        4598      4599      4600      4601      4602      4603      4604      4605
  8181        4606      4607      4608      4609      4610      4611      4612      4613
  8182        4614      4615      4616      4617      4618      4619      4620      4621
  8183        4622      4623      4624      4625      4626      4627      4628      4629
  8184        4630      4631      4632      4633      4634      4635      4636      4637
  8185        4638      4639      4640      4641      4642      4643      4644      4645
  8186        4646      4647      4648      4649      4650      4651      4652      4653
  8187        4654      4655      4656      4657      4658      4659      4660      4661
  8188        4662      4663      4664      4665      4666      4667      4668      4669
  8189        4670      4671      4672      4673      4674      4675      4676      4677
  8190        4678      4679      4680      4681      4682      4683      4684      4685
  8191        4686      4687      4688      4689      4690      4691      4692      4693
  8192        4694      4695      4696      4697      4698      4699      4700      4701
  8193        4702      4703      4704      4705      4706      4707      4708      4709
  8194        4710      4711      4712      4713      4714      4715      4716      4717
  8195        4718      4719      4720      4721      4722      4723      4724      4725
  8196        4726      4727      4728      4729      4730      4731      4732      4733
  8197        4734      4735      4736      4737      4738      4739      4740      4741
  8198        4742      4743      4744      4745      4746      4747      4748      4749
  8199        4750      4751      4752      4753      4754      4755      4756      4757
  8200        4758      4759      4760      4761      4762      4763      4764      4765
  8201        4766      4767      4768      4769      4770      4771      4772      4773
  8202        4774      4775      4776      4777      4778      4779      4780      4781
  8203        4782      4783      4784      4785      4786      4787      4788      4789
  8204        4790      4791      4792      4793      4794      4795      4796      4797
  8205        4798      4799      4800      4801      4802      4803      4804      4805
  8206        4806      4807      4808      4809      4810      4811      4812      4813
  8207        4814      4815      4816      4817      4818      4819      4820      4821
  8208        4822      4823      4824      4825      4826      4827      4828      4829
  8209        4830      4831      4832      4833      4834      4835      4836      4837
  8210        4838      4839      4840      4841      4842      4843      4844      4845
  8211        4846      4847      4848      4849      4850      4851      4852      4853
  8212        4854      4855      4856      4857      4858      4859      4860      4861
  8213        4862      4863      4864      4865      4866      4867      4868      4869
  8214        4870      4871      4872      4873      4874      4875      4876      4877
  8215        4878      4879      4880      4881      4882      4883      4884      4885
  8216        4886      4887      4888      4889      4890      4891      4892      4893
  8217        4894      4895      4896      4897      4898      4899      4900      4901
  8218        4902      4903      4904      4905      4906      4907      4908      4909
  8219        4910      4911      4912      4913      4914      4915      4916      4917
  8220        4918      4919      4920      4921      4922      4923      4924      4925
  8221        4926      4927      4928      4929      4930      4931      4932      4933
  8222        4934      4935      4936      4937      4938      4939      4940      4941
  8223        4942      4943      4944      4945      4946      4947      4948      4949
  8224        4950      4951      4952      4953      4954      4955      4956      4957
  8225        4958      4959      4960      4961      4962      4963      4964      4965
  8226        4966      4967      4968      4969      4970      4971      4972      4973
  8227        4974      4975      4976      4977      4978      4979      4980      4981
  8228        4982      4983      4984      4985      4986      4987      4988      4989
  8229        4990      4991      4992      4993      4994      4995      4996      4997
  8230        4998      4999      5000      5001      5002      5003      5004      5005
  8231        5006      5007      5008      5009      5010      5011      5012      5013
  8232        5014      5015      5016      5017      5018      5019      5020      5021
  8233        5022      5023      5024      5025      5026      5027      5028      5029
  8234        5030      5031      5032      5033      5034      5035      5036      5037
  8235        5038      5039      5040      5041      5042      5043      5044      5045
  8236        5046      5047      5048      5049      5050      5051      5052      5053
  8237        5054      5055      5056      5057      5058      5059      5060      5061
  8238        5062      5063      5064      5065      5066      5067      5068      5069
  8239        5070      5071      5072      5073      5074      5075      5076      5077
  8240        5078      5079      5080      5081      5082      5083      5084      5085
  8241        5086      5087      5088      5089      5090      5091      5092      5093
  8242        5094      5095      5096      5097      5098      5099      5100      5101
  8243        5102      5103      5104      5105      5106      5107      5108      5109
  8244        5110      5111      5112      5113      5114      5115      5116      5117
  8245        5118      5119      5120      5121      5122      5123      5124      5125
  8246        5126      5127      5128      5129      5130      5131      5132      5133
  8247        5134      5135      5136      5137      5138      5139      5140      5141
  8248        5142      5143      5144      5145      5146      5147      5148      5149
  8249        5150      5151      5152      5153      5154      5155      5156      5157
  8250        5158      5159      5160      5161      5162      5163      5164      5165
  8251        5166      5167      5168      5169      5170      5171      5172      5173
  8252        5174      5175      5176      5177      5178      5179      5180      5181
  8253        5182      5183      5184      5185      5186      5187      5188      5189
  8254        5190      5191      5192      5193      5194      5195      5196      5197
  8255        5198      5199      5200      5201      5202      5203      5204      5205
  8256        5206      5207      5208      5209      5210      5211      5212      5213
  8257        5214      5215      5216      5217      5218      5219      5220      5221
  8258        5222      5223      5224      5225      5226      5227      5228      5229
  8259        5230      5231      5232      5233      5234      5235      5236      5237
  8260        5238      5239      5240      5241      5242      5243      5244      5245
  8261        5246      5247      5248      5249      5250      5251      5252      5253
  8262        5254      5255      5256      5257      5258      5259      5260      5261
  8263        5262      5263      5264      5265      5266      5267      5268      5269
  8264        5270      5271      5272      5273      5274      5275      5276      5277
  8265        5278      5279      5280      5281      5282      5283      5284      5285
  8266        5286      5287      5288      5289      5290      5291      5292      5293
  8267        5294      5295      5296      5297      5298      5299      5300      5301
  8268        5302      5303      5304      5305      5306      5307      5308      5309
  8269        5310      5311      5312      5313      5314      5315      5316      5317
  8270        5318      5319      5320      5321      5322      5323      5325      5327
  8271        5329      5331      5333      5335      5337      5339      5341      5343
  8272        5345      5347      5349      5351      5353      5355      5357      5359
  8273        5361      5363      5365      5367      5369      5371      5373      5375
  8274        5377      5379      5381      5383      5385      5387      5389      5391
  8275        5393      5395      5397      5398      5400      5402      5404      5406
  8276        5408      5410      5412      5414      5416      5418      5420      5422
  8277        5424      5426      5428      5430      5432      5434      5436      5438
  8278        5440      5442      5444      5446      5448      5450      5451      5453
  8279        5455      5457      5459      5461      5462      5464      5466      5468
  8280        5470      5472      5473      5475      5477      5479      5481      5483
  8281        5485      5487      5489      5503      5505      5507      5509      5511
  8282        5513      5515      5517      5519      5521      5523      5525      5527
  8283        5529      5531      5533      5536      5538      5540      5542      5544
  8284        5546      5548      5550      5552      5554      5556      5558      5560
  8285        5562      5564      5566      5568      5570      5572      5586      5588
  8286        5590      5592      5594      5596      5598      5600      5602      5604
  8287        5606      5608      5610      5611      5613      5615      5617      5619
  8288        5621      5623      5625      5627      5629      5631      5633      5635
  8289        5637      5640      5641      5643      5645      5647      5649      5651
  8290        5653      5655      5657      5659      5661      5663      5666      5668
  8291        5670      5672      5674      5676      5678      5680      5682      5684
  8292        5686      5688      5690      5693      5695      5697      5699      5701
  8293        5703      5705      5707      5709      5711      5713      5715      5717
  8294        5720      5721      5723      5725      5727      5729      5731      5733
  8295        5735      5737      5740      5742      5744      5746      5748      5750
  8296        5752      5754      5756      5758      5760      5761      5763      5765
  8297        5767      5769      5771      5773      5775      5777      5779      5782
  8298        5784      5786      5788      5790      5792      5794      5796      5798
  8299        5800      5802      5804      5806      5808      5811      5813      5815
  8300        5817      5819      5822      5823      5824      5825      5826      5827
  8301        5828      5829      5830      5831      5832      5833      5834      5835
  8302        5836      5837      5838      5839      5840      5841      5842      5843
  8303        5844      5845      5846      5847      5848      5849      5850      5851
  8304        5852      5853      5854      5855      5856      5857      5858      5859
  8305        5860      5861      5862      5863      5864      5865      5866      5867
  8306        5868      5869      5870      5871      5872      5873      5874      5875
  8307        5876      5877      5878      5879      5880      5881      5882      5883
  8308        5884      5885      5886      5887      5888      5889      5890      5891
  8309        5892      5893      5894      5895      5896      5897      5898      5899
  8310        5900      5901      5902      5903      5904      5905      5906      5907
  8311        5908      5909      5910      5911      5912      5913      5914      5915
  8312        5916      5917      5918      5919      5920      5921      5922      5923
  8313        5924      5925      5926      5927      5928      5929      5930      5931
  8314        5932      5934      5935      5936      5937      5938      5939      5940
  8315        5941      5942      5943      5944      5945      5951      5952      5953
  8316        5954      5955      5956      5957      5958      5959      5960      5961
  8317        5962      5963      5964      5965      5966      5967      5968      5969
  8318        5970      5971      5972      5973      5974      5975      5976      5977
  8319        5978      5979      5980      5981      5982      5983      5984      5985
  8320        5986      5987      5994      5995      5996      5997      5998      5999
  8321        6000      6001      6002      6003      6004      6005      6006      6007
  8322        6008      6009      6010      6011      6012      6013      6014      6015
  8323        6016      6017      6018      6019      6020      6021      6022      6023
  8324        6024      6025      6026      6027      6028      6029      6030      6031
  8325        6032      6033      6034      6035      6036      6037      6038      6039
  8326        6040      6041      6042      6043      6044      6045      6046      6047
  8327        6048      6049      6050      6051      6052      6053      6054      6055
  8328        6056      6057      6058      6059      6060      6061      6062      6063
  8329        6064      6065      6066      6067      6068      6069      6070      6071
  8330      
  8331  cmsel,s,_FRICSUZ
  8332  d,all,uz,0  
  8333  nsel,all
  8334  /com,*********** Create Elastic Support *********** 
  8335  et,3,154
  8336  eblock,10,,,53  
  8337  (15i9)  
  8338        761        3        3        3        0       64      125      103       86      339      407      382      338   
  8339        762        3        3        3        0       65      124      125       64      341      429      339      337   
  8340        763        3        3        3        0       66      123      124       65      343      428      341      340   
  8341        764        3        3        3        0       67      122      123       66      345      427      343      342   
  8342        765        3        3        3        0       68      121      122       67      347      426      345      344   
  8343        766        3        3        3        0       69      120      121       68      349      425      347      346   
  8344        767        3        3        3        0       70      119      120       69      351      424      349      348   
  8345        768        3        3        3        0       71      118      119       70      353      423      351      350   
  8346        769        3        3        3        0       72      117      118       71      355      422      353      352   
  8347        770        3        3        3        0       73      116      117       72      357      421      355      354   
  8348        771        3        3        3        0       74      115      116       73      359      420      357      356   
  8349        772        3        3        3        0       75      114      115       74      361      419      359      358   
  8350        773        3        3        3        0       76      113      114       75      363      418      361      360   
  8351        774        3        3        3        0       77      112      113       76      365      417      363      362   
  8352        775        3        3        3        0       78      111      112       77      367      416      365      364   
  8353        776        3        3        3        0       79      110      111       78      369      415      367      366   
  8354        777        3        3        3        0       80      109      110       79      371      414      369      368   
  8355        778        3        3        3        0       81      108      109       80      373      413      371      370   
  8356        779        3        3        3        0       82      107      108       81      375      412      373      372   
  8357        780        3        3        3        0       83      106      107       82      377      411      375      374   
  8358        781        3        3        3        0     1969     1781     1782     1983     5638     5637     5639     5920   
  8359        782        3        3        3        0     1970     1780     1781     1969     5636     5635     5638     5919   
  8360        783        3        3        3        0     1971     1779     1780     1970     5634     5633     5636     5921   
  8361        784        3        3        3        0     1972     1778     1779     1971     5632     5631     5634     5922   
  8362        785        3        3        3        0     1973     1777     1778     1972     5630     5629     5632     5923   
  8363        786        3        3        3        0     1974     1776     1777     1973     5628     5627     5630     5924   
  8364        787        3        3        3        0     1975     1775     1776     1974     5626     5625     5628     5925   
  8365        788        3        3        3        0     1976     1774     1775     1975     5624     5623     5626     5926   
  8366        789        3        3        3        0     1977     1773     1774     1976     5622     5621     5624     5927   
  8367        790        3        3        3        0     1978     1772     1773     1977     5620     5619     5622     5928   
  8368        791        3        3        3        0     1979     1771     1772     1978     5618     5617     5620     5929   
  8369        792        3        3        3        0     1980     1770     1771     1979     5616     5615     5618     5930   
  8370        793        3        3        3        0     1981     1769     1770     1980     5614     5613     5616     5931   
  8371        794        3        3        3        0     1982     1768     1769     1981     5612     5610     5614     5932   
  8372        795        3        3        3        0     1880     1875     1768     1982     5821     5611     5612     5827   
  8373        796        3        3        3        0     1880     1876     1874     1875     5823     5820     5819     5821   
  8374        797        3        3        3        0     1876     1877     1873     1874     5822     5818     5817     5820   
  8375        798        3        3        3        0     1877     1878     1872     1873     5824     5816     5815     5818   
  8376        799        3        3        3        0     1878     1879     1871     1872     5825     5814     5813     5816   
  8377        800        3        3        3        0     1879     1881     1870     1871     5826     5812     5811     5814   
  8378        801        3        3        3        0     2044     1707     1866     1884     5490     5489     5805     5832   
  8379        802        3        3        3        0     2045     1706     1707     2044     5488     5487     5490     5995   
  8380        803        3        3        3        0     2046     1705     1706     2045     5486     5485     5488     5996   
  8381        804        3        3        3        0     2047     1704     1705     2046     5484     5483     5486     5997   
  8382        805        3        3        3        0     2048     1703     1704     2047     5482     5481     5484     5998   
  8383        806        3        3        3        0     2049     1702     1703     2048     5480     5479     5482     5999   
  8384        807        3        3        3        0     2050     1701     1702     2049     5478     5477     5480     6000   
  8385        808        3        3        3        0     2051     1700     1701     2050     5476     5475     5478     6001   
  8386        809        3        3        3        0     2052     1699     1700     2051     5474     5472     5476     6002   
  8387        810        3        3        3        0     2043     1708     1699     2052     5492     5473     5474     5994   
  8388        811        3        3        3        0     1885     1882     1868     1869     5830     5809     5808     5810   
  8389        812        3        3        3        0     1882     1883     1867     1868     5829     5807     5806     5809   
  8390        813        3        3        3        0     1883     1884     1866     1867     5831     5805     5804     5807   
  8391  -1  
  8392  esel,s,type,,3  
  8393  r,3,,,,10000000000000.  
  8394  esel,all
  8395  /com,*********** Define Pressure Using Surface Effect Elements ***********  
  8396  et,4,154
  8397  eblock,10,,,38  
  8398  (15i9)  
  8399        814        4        4        4        0     2089     1626     1834     1917     5324     5323     5741     5865   
  8400        815        4        4        4        0     2090     1627     1626     2089     5326     5322     5324     6036   
  8401        816        4        4        4        0     2091     1628     1627     2090     5328     5325     5326     6037   
  8402        817        4        4        4        0     2092     1629     1628     2091     5330     5327     5328     6038   
  8403        818        4        4        4        0     2093     1630     1629     2092     5332     5329     5330     6039   
  8404        819        4        4        4        0     2094     1631     1630     2093     5334     5331     5332     6040   
  8405        820        4        4        4        0     2095     1632     1631     2094     5336     5333     5334     6041   
  8406        821        4        4        4        0     2096     1633     1632     2095     5338     5335     5336     6042   
  8407        822        4        4        4        0     2097     1634     1633     2096     5340     5337     5338     6043   
  8408        823        4        4        4        0     2098     1635     1634     2097     5342     5339     5340     6044   
  8409        824        4        4        4        0     2099     1636     1635     2098     5344     5341     5342     6045   
  8410        825        4        4        4        0     2100     1637     1636     2099     5346     5343     5344     6046   
  8411        826        4        4        4        0     2101     1638     1637     2100     5348     5345     5346     6047   
  8412        827        4        4        4        0     2102     1639     1638     2101     5350     5347     5348     6048   
  8413        828        4        4        4        0     2103     1640     1639     2102     5352     5349     5350     6049   
  8414        829        4        4        4        0     2104     1641     1640     2103     5354     5351     5352     6050   
  8415        830        4        4        4        0     2105     1642     1641     2104     5356     5353     5354     6051   
  8416        831        4        4        4        0     2106     1643     1642     2105     5358     5355     5356     6052   
  8417        832        4        4        4        0     2107     1644     1643     2106     5360     5357     5358     6053   
  8418        833        4        4        4        0     2108     1645     1644     2107     5362     5359     5360     6054   
  8419        834        4        4        4        0     2109     1646     1645     2108     5364     5361     5362     6055   
  8420        835        4        4        4        0     2110     1647     1646     2109     5366     5363     5364     6056   
  8421        836        4        4        4        0     2111     1648     1647     2110     5368     5365     5366     6057   
  8422        837        4        4        4        0     2112     1649     1648     2111     5370     5367     5368     6058   
  8423        838        4        4        4        0     2113     1650     1649     2112     5372     5369     5370     6059   
  8424        839        4        4        4        0     2114     1651     1650     2113     5374     5371     5372     6060   
  8425        840        4        4        4        0     2115     1652     1651     2114     5376     5373     5374     6061   
  8426        841        4        4        4        0     2116     1653     1652     2115     5378     5375     5376     6062   
  8427        842        4        4        4        0     2117     1654     1653     2116     5380     5377     5378     6063   
  8428        843        4        4        4        0     2118     1655     1654     2117     5382     5379     5380     6064   
  8429        844        4        4        4        0     2119     1656     1655     2118     5384     5381     5382     6065   
  8430        845        4        4        4        0     2120     1657     1656     2119     5386     5383     5384     6066   
  8431        846        4        4        4        0     2121     1658     1657     2120     5388     5385     5386     6067   
  8432        847        4        4        4        0     2122     1659     1658     2121     5390     5387     5388     6068   
  8433        848        4        4        4        0     2123     1660     1659     2122     5392     5389     5390     6069   
  8434        849        4        4        4        0     2124     1661     1660     2123     5394     5391     5392     6070   
  8435        850        4        4        4        0     2125     1662     1661     2124     5396     5393     5394     6071   
  8436        851        4        4        4        0     1927     1833     1662     2125     5739     5395     5396     5875   
  8437  -1  
  8438  esel,s,type,,4  
  8439  esel,all
  8440      
  8441  *DIM,_loadvari300,TABLE,3,1,1,TIME, 
  8442  ! Time values   
  8443  _loadvari300(1,0,1) = 0.
  8444  _loadvari300(2,0,1) = 0.1   
  8445  _loadvari300(3,0,1) = 0.2   
  8446  ! Load values   
  8447  _loadvari300(1,1,1) = 0.
  8448  _loadvari300(2,1,1) = 0.
  8449  _loadvari300(3,1,1) = 1000. 
  8450      
  8451  /com,*********** Define Pressure Using Surface Effect Elements ***********  
  8452  et,5,154
  8453  eblock,10,,,20  
  8454  (15i9)  
  8455        852        5        5        5        0     1896     1908     1843     1855     5844     5759     5758     5783   
  8456        853        5        5        5        0     1908     1909     1842     1843     5856     5757     5756     5759   
  8457        854        5        5        5        0     1909     1910     1841     1842     5857     5755     5754     5757   
  8458        855        5        5        5        0     1910     1911     1840     1841     5858     5753     5752     5755   
  8459        856        5        5        5        0     1911     1912     1839     1840     5859     5751     5750     5753   
  8460        857        5        5        5        0     1912     1913     1838     1839     5860     5749     5748     5751   
  8461        858        5        5        5        0     1913     1914     1837     1838     5861     5747     5746     5749   
  8462        859        5        5        5        0     1914     1915     1836     1837     5862     5745     5744     5747   
  8463        860        5        5        5        0     1915     1916     1835     1836     5863     5743     5742     5745   
  8464        861        5        5        5        0     1916     1917     1834     1835     5864     5741     5740     5743   
  8465        862        5        5        5        0     1854     1824     1926     1907     5721     5722     5855     5781   
  8466        863        5        5        5        0     1824     1825     1925     1926     5720     5724     5874     5722   
  8467        864        5        5        5        0     1825     1826     1924     1925     5723     5726     5873     5724   
  8468        865        5        5        5        0     1826     1827     1923     1924     5725     5728     5872     5726   
  8469        866        5        5        5        0     1827     1828     1922     1923     5727     5730     5871     5728   
  8470        867        5        5        5        0     1828     1829     1921     1922     5729     5732     5870     5730   
  8471        868        5        5        5        0     1829     1830     1920     1921     5731     5734     5869     5732   
  8472        869        5        5        5        0     1830     1831     1919     1920     5733     5736     5868     5734   
  8473        870        5        5        5        0     1831     1832     1918     1919     5735     5738     5866     5736   
  8474        871        5        5        5        0     1832     1833     1927     1918     5737     5739     5867     5738   
  8475  -1  
  8476  esel,s,type,,5  
  8477  esel,all
  8478      
  8479  *DIM,_loadvari302,TABLE,2,1,1,TIME, 
[...]
  This command will be ignored.                                          

 WRITE ALL COMPONENTS TO THE COMPONENTS FILE.
 START WRITING AT THE BEGINNING OF FILE file.cm

 COMPONENTS WERE WRITTEN TO FILE= file.cm

 PERFORM A FULL TRANSIENT ANALYSIS
  USING HHT ALGORITHM

 USE AMPLITUDE DECAY FACTOR FOR SECOND ORDER TRANSIENT PARAMETERS
   GAMMA= 0.1000      (ALPHA= 0.3025      DELTA= 0.6000      ALPHAF= 0.1000      ALPHAM=  0.000    )

 NLDIAG: Nonlinear diagnostics CONT option is set to ON. 
         Writing frequency : each ITERATION.

 DEFINE RESTART CONTROL FOR LOADSTEP LAST
 AT FREQUENCY OF LAST AND NUMBER FOR OVERWRITE IS    0
 ****************************************************
 ******************* SOLVE FOR LS 1 OF 1 ****************

 SELECT       FOR ITEM=TYPE COMPONENT=    
  IN RANGE       4 TO        4 STEP        1

       38  ELEMENTS (OF      893  DEFINED) SELECTED BY  ESEL  COMMAND.

 SELECT      ALL NODES HAVING ANY ELEMENT IN ELEMENT SET.

      193 NODES (OF     6071  DEFINED) SELECTED FROM
       38 SELECTED ELEMENTS BY NSLE COMMAND.

 GENERATE SURFACE LOAD PRES ON SURFACE DEFINED BY ALL SELECTED NODES
 SET ACCORDING TO TABLE PARAMETER = _LOADVARI300                    

 NUMBER OF PRES ELEMENT FACE LOADS STORED =     38

 SELECT       FOR ITEM=TYPE COMPONENT=    
  IN RANGE       5 TO        5 STEP        1

       20  ELEMENTS (OF      893  DEFINED) SELECTED BY  ESEL  COMMAND.

 SELECT      ALL NODES HAVING ANY ELEMENT IN ELEMENT SET.

      106 NODES (OF     6071  DEFINED) SELECTED FROM
       20 SELECTED ELEMENTS BY NSLE COMMAND.

 GENERATE SURFACE LOAD PRES ON SURFACE DEFINED BY ALL SELECTED NODES
 SET ACCORDING TO TABLE PARAMETER = _LOADVARI302                    

 NUMBER OF PRES ELEMENT FACE LOADS STORED =     20

 SELECT       FOR ITEM=TYPE COMPONENT=    
  IN RANGE       6 TO        6 STEP        1

       22  ELEMENTS (OF      893  DEFINED) SELECTED BY  ESEL  COMMAND.

 SELECT      ALL NODES HAVING ANY ELEMENT IN ELEMENT SET.

      116 NODES (OF     6071  DEFINED) SELECTED FROM
       22 SELECTED ELEMENTS BY NSLE COMMAND.

 GENERATE SURFACE LOAD PRES ON SURFACE DEFINED BY ALL SELECTED NODES
 SET ACCORDING TO TABLE PARAMETER = _LOADVARI304                    

 NUMBER OF PRES ELEMENT FACE LOADS STORED =     22

 ALL SELECT   FOR ITEM=NODE COMPONENT=    
  IN RANGE       1 TO     6071 STEP        1

     6071  NODES (OF     6071  DEFINED) SELECTED BY NSEL  COMMAND.

 ALL SELECT   FOR ITEM=ELEM COMPONENT=    
  IN RANGE       1 TO      893 STEP        1

      893  ELEMENTS (OF      893  DEFINED) SELECTED BY  ESEL  COMMAND.

 ALL SELECT   FOR ITEM=ELEM COMPONENT=    
  IN RANGE       1 TO      893 STEP        1

      893  ELEMENTS (OF      893  DEFINED) SELECTED BY  ESEL  COMMAND.

 PRINTOUT RESUMED BY /GOP

 DO NOT USE AUTOMATIC TIME STEPPING THIS LOAD STEP

 USE       1 SUBSTEPS INITIALLY THIS LOAD STEP FOR ALL  DEGREES OF FREEDOM
 FOR AUTOMATIC TIME STEPPING:
   USE      1 SUBSTEPS AS A MAXIMUM
   USE      1 SUBSTEPS AS A MINIMUM

 TIME=  1.0000    

 INCLUDE TRANSIENT EFFECTS FOR  ALL DEGREES OF FREEDOM THIS LOAD STEP

 ERASE THE CURRENT DATABASE OUTPUT CONTROL TABLE.


 WRITE ALL  ITEMS TO THE DATABASE WITH A FREQUENCY OF NONE
   FOR ALL APPLICABLE ENTITIES

 WRITE NSOL ITEMS TO THE DATABASE WITH A FREQUENCY OF ALL 
   FOR ALL APPLICABLE ENTITIES

 WRITE RSOL ITEMS TO THE DATABASE WITH A FREQUENCY OF ALL 
   FOR ALL APPLICABLE ENTITIES

 WRITE STRS ITEMS TO THE DATABASE WITH A FREQUENCY OF ALL 
   FOR ALL APPLICABLE ENTITIES

 WRITE EPEL ITEMS TO THE DATABASE WITH A FREQUENCY OF ALL 
   FOR ALL APPLICABLE ENTITIES

 WRITE EPPL ITEMS TO THE DATABASE WITH A FREQUENCY OF ALL 
   FOR ALL APPLICABLE ENTITIES

 WRITE V    ITEMS TO THE DATABASE WITH A FREQUENCY OF ALL 
   FOR ALL APPLICABLE ENTITIES

 WRITE A    ITEMS TO THE DATABASE WITH A FREQUENCY OF ALL 
   FOR ALL APPLICABLE ENTITIES

 NONLINER STABILIZATION CONTROL:
 KEY=OFF 


 NLDIAG: Nonlinear diagnostics NRRE option is set to ON. 
         Saving files for the last  4 Equ. Iterations.

 *GET  ANSINTER_  FROM  ACTI  ITEM=INT        VALUE=  0.00000000    

 *IF  ANSINTER_                         ( =   0.00000     )  NE  
      0                                 ( =   0.00000     )  THEN    

 *ENDIF

 *****  ANSYS SOLVE    COMMAND  *****

 *** WARNING ***                         CP =       1.139   TIME= 18:06:15
 Element shape checking is currently inactive.  Issue SHPP,ON or         
 SHPP,WARN to reactivate, if desired.                                    

 *** NOTE ***                            CP =       1.139   TIME= 18:06:15
 The model data was checked and warning messages were found.             
  Please review output or errors file (                                  
 C:\Users\ecslogon\Desktop\trail\file.err ) for these warning messages.  

 *** SELECTION OF ELEMENT TECHNOLOGIES FOR APPLICABLE ELEMENTS ***
      --- GIVE SUGGESTIONS AND RESET THE KEY OPTIONS ---

 ELEMENT TYPE    1 IS SOLID186. KEYOPT(2)=0 IS SUGGESTED AND HAS BEEN RESET.
  KEYOPT(1-12)=    0    0    0    0    0    0    0    0    0    0    0    0

 ELEMENT TYPE    2 IS SOLID186. KEYOPT(2)=0 IS SUGGESTED AND HAS BEEN RESET.
  KEYOPT(1-12)=    0    0    0    0    0    0    0    0    0    0    0    0


1

 ***** ANSYS - ENGINEERING ANALYSIS SYSTEM  RELEASE 12.1     *****
 ANSYS Academic Research                           
 00416040          VERSION=WINDOWS x64   18:06:15  JUL 11, 2017 CP=      1.139

 Ventricle-r2-Shar-4-16-17--Transient (B5)                                     


                       S O L U T I O N   O P T I O N S

   PROBLEM DIMENSIONALITY. . . . . . . . . . . . .3-D                  
   DEGREES OF FREEDOM. . . . . . UX   UY   UZ  
   ANALYSIS TYPE . . . . . . . . . . . . . . . . .TRANSIENT            
      SOLUTION METHOD. . . . . . . . . . . . . . .FULL              
   OFFSET TEMPERATURE FROM ABSOLUTE ZERO . . . . .  273.15    
   NONLINEAR GEOMETRIC EFFECTS . . . . . . . . . .ON
   EQUATION SOLVER OPTION. . . . . . . . . . . . .SPARSE             
   NEWTON-RAPHSON OPTION . . . . . . . . . . . . .PROGRAM CHOSEN   
   GLOBALLY ASSEMBLED MATRIX . . . . . . . . . . .SYMMETRIC  

 *** WARNING ***                         CP =       1.139   TIME= 18:06:15
 Material number 3 (used by element 761 ) should normally have at least  
 one MP or one TB type command associated with it.  Output of energy by  
 material may not be available.                                          

 *** NOTE ***                            CP =       1.139   TIME= 18:06:15
 The step data was checked and warning messages were found.              
  Please review output or errors file (                                  
 C:\Users\ecslogon\Desktop\trail\file.err ) for these warning messages.  

 *** NOTE ***                            CP =       1.139   TIME= 18:06:15
 This nonlinear analysis defaults to using the full Newton-Raphson       
 solution procedure.  This can be modified using the NROPT command.      

 *** NOTE ***                            CP =       1.139   TIME= 18:06:15
 The conditions for direct assembly have been met.  No .emat or .erot    
 files will be produced.                                                 

                      L O A D   S T E P   O P T I O N S

   LOAD STEP NUMBER. . . . . . . . . . . . . . . .     1
   TIME AT END OF THE LOAD STEP. . . . . . . . . .  1.0000    
   NUMBER OF SUBSTEPS. . . . . . . . . . . . . . .     1
   MAXIMUM NUMBER OF EQUILIBRIUM ITERATIONS. . . .    15
   STEP CHANGE BOUNDARY CONDITIONS . . . . . . . .   YES
   STRESS-STIFFENING . . . . . . . . . . . . . . .    ON
   TRANSIENT (INERTIA) EFFECTS
      STRUCTURAL DOFS. . . . . . . . . . . . . . .    ON
   TRANSIENT INTEGRATION PARAMETERS
      GAMMA. . . . . . . . . . . . . . . . . . . . 0.10000    
      ALPHA. . . . . . . . . . . . . . . . . . . . 0.30250    
      DELTA. . . . . . . . . . . . . . . . . . . . 0.60000    
      USING HHT TIME INTEGRATION
      ALPHAF . . . . . . . . . . . . . . . . . . . 0.10000    
      ALPHAM . . . . . . . . . . . . . . . . . . .  0.0000    
   TERMINATE ANALYSIS IF NOT CONVERGED . . . . . .YES (EXIT)  
   CONVERGENCE CONTROLS. . . . . . . . . . . . . .USE DEFAULTS
   PRINT OUTPUT CONTROLS . . . . . . . . . . . . .NO PRINTOUT
   DATABASE OUTPUT CONTROLS
      ITEM     FREQUENCY   COMPONENT
       ALL       NONE               
      NSOL        ALL               
      RSOL        ALL               
      STRS        ALL               
      EPEL        ALL               
      EPPL        ALL               
      V           ALL               
      A           ALL               


 SOLUTION MONITORING INFO IS WRITTEN TO FILE= file.mntr                                                                                                                                                                                                                                                           
 MAXIMUM NUMBER OF EQUILIBRIUM ITERATIONS HAS BEEN MODIFIED              
  TO BE, NEQIT = 22, BY SOLUTION CONTROL LOGIC.                          




            **** CENTER OF MASS, MASS, AND MASS MOMENTS OF INERTIA ****

  CALCULATIONS ASSUME ELEMENT MASS AT ELEMENT CENTROID

  TOTAL MASS =  0.25159E-02

                           MOM. OF INERTIA         MOM. OF INERTIA
  CENTER OF MASS            ABOUT ORIGIN        ABOUT CENTER OF MASS

  XC = -0.12841E-03      IXX =   0.2125E-05      IXX =   0.2001E-05
  YC = -0.69975E-02      IYY =   0.1290E-05      IYY =   0.1289E-05
  ZC =  0.50001E-03      IZZ =   0.3414E-05      IZZ =   0.3291E-05
                         IXY =  -0.3185E-07      IXY =  -0.2959E-07
                         IYZ =   0.8802E-08      IYZ =  -0.4579E-12
                         IZX =   0.1615E-09      IZX =   0.3849E-14


  *** MASS SUMMARY BY ELEMENT TYPE ***

  TYPE      MASS
     1  0.868414E-04
     2  0.242903E-02

 Range of element maximum matrix coefficients in global coordinates
 Maximum = 3277229.9 at element 781.                                     
 Minimum = 1255.07299 at element 27.                                     

   *** ELEMENT MATRIX FORMULATION TIMES
  TYPE  NUMBER   ENAME      TOTAL CP  AVE CP

     1      46  SOLID186      0.062   0.001357
     2     714  SOLID186      0.749   0.001049
     3      53  SURF154       0.031   0.000589
     4      38  SURF154       0.031   0.000821
     5      20  SURF154       0.000   0.000000
     6      22  SURF154       0.000   0.000000
 Time at end of element matrix formulation CP = 1.96561265.              

 ALL CURRENT ANSYS DATA WRITTEN TO FILE NAME= file.rdb
  FOR POSSIBLE RESUME FROM THIS POINT
     FORCE CONVERGENCE VALUE  = 0.1449E-01  CRITERION= 0.7392E-04
    Writing NEWTON-RAPHSON residual forces to file: file.nr001

 SPARSE MATRIX DIRECT SOLVER.
  Number of equations =       12849,    Maximum wavefront =    132
  Memory allocated for solver =               124.351 MB
  Memory required for in-core =                23.667 MB
  Optimal memory required for out-of-core =     6.266 MB
  Minimum memory required for out-of-core =     6.098 MB

 *** NOTE ***                            CP =       2.465   TIME= 18:06:16
 The Sparse Matrix solver is currently running in the in-core memory     
 mode.  This memory mode uses the most amount of memory in order to      
 avoid using the hard drive as much as possible, which most often        
 results in the fastest solution time.  This mode is recommended if      
 enough physical memory is present to accommodate all of the solver      
 data.                                                                   
 curEqn=  12849  totEqn=  12849 Job CP sec=      2.668
      Factor Done= 101% Factor Wall sec=      0.068 rate= 2215.1 Mflops
 curEqn=  12849  totEqn=  12849 Job CP sec=      2.668
      Factor Done= 101% Factor Wall sec=      0.000 rate=    0.0 Mflops
 Sparse solver maximum pivot= 3277895.44 at node 5611 UX.                
 Sparse solver minimum pivot= 153.590812 at node 51 UX.                  
 Sparse solver minimum pivot in absolute value= 153.590812 at node 51    
 UX.                                                                     
     DISP CONVERGENCE VALUE   = 0.2517E-01  CRITERION= 0.3216E-04
    EQUIL ITER   1 COMPLETED.  NEW TRIANG MATRIX.  MAX DOF INC=  0.6433E-03
     FORCE CONVERGENCE VALUE  = 0.3670      CRITERION= 0.8657E-03
    Writing NEWTON-RAPHSON residual forces to file: file.nr002
     DISP CONVERGENCE VALUE   = 0.1529E-02  CRITERION= 0.3427E-04
    EQUIL ITER   2 COMPLETED.  NEW TRIANG MATRIX.  MAX DOF INC=  0.4301E-04
     FORCE CONVERGENCE VALUE  = 0.2233E-01  CRITERION= 0.9902E-03
    Writing NEWTON-RAPHSON residual forces to file: file.nr003
     DISP CONVERGENCE VALUE   = 0.4945E-04  CRITERION= 0.3435E-04
    EQUIL ITER   3 COMPLETED.  NEW TRIANG MATRIX.  MAX DOF INC=  0.1460E-05
     FORCE CONVERGENCE VALUE  = 0.5204E-03  CRITERION= 0.1012E-02 <<< CONVERGED
    Writing NEWTON-RAPHSON residual forces to file: file.nr004
     DISP CONVERGENCE VALUE   = 0.7128E-07  CRITERION= 0.3435E-04 <<< CONVERGED
    EQUIL ITER   4 COMPLETED.  NEW TRIANG MATRIX.  MAX DOF INC =  0.1905E-08
    >>> SOLUTION CONVERGED AFTER EQUILIBRIUM ITERATION   4

   *** ELEMENT RESULT CALCULATION TIMES
  TYPE  NUMBER   ENAME      TOTAL CP  AVE CP

     1      46  SOLID186      0.031   0.000678
     2     714  SOLID186      0.374   0.000524
     3      53  SURF154       0.000   0.000000
     4      38  SURF154       0.000   0.000000
     5      20  SURF154       0.000   0.000000
     6      22  SURF154       0.000   0.000000

   *** NODAL LOAD CALCULATION TIMES
  TYPE  NUMBER   ENAME      TOTAL CP  AVE CP

     1      46  SOLID186      0.000   0.000000
     2     714  SOLID186      0.000   0.000000
     3      53  SURF154       0.000   0.000000
     4      38  SURF154       0.000   0.000000
     5      20  SURF154       0.000   0.000000
     6      22  SURF154       0.000   0.000000
 *** LOAD STEP     1   SUBSTEP     1  COMPLETED.    CUM ITER =      4
 *** TIME =   1.00000         TIME INC =   1.00000    
 *** RESPONSE FREQ =  6.353       PERIOD=  0.1574      PTS/CYC = 0.16    


 *** ANSYS BINARY FILE STATISTICS
  BUFFER SIZE USED= 16384
        4.438 MB WRITTEN ON ELEMENT SAVED DATA FILE: file.esav
        7.688 MB WRITTEN ON ASSEMBLED MATRIX FILE: file.full
        3.188 MB WRITTEN ON RESULTS FILE: file.rst
 *************** Write FE CONNECTORS *********

 WRITE OUT CONSTRAINT EQUATIONS TO FILE= file.ce                                                                                                                                                                                                                                                             
 ****************************************************
 *************** FINISHED SOLVE FOR LS 1 *************

 *GET  _WALLASOL  FROM  ACTI  ITEM=TIME WALL  VALUE=  18.1050000    

 PRINTOUT RESUMED BY /GOP

 FINISH SOLUTION PROCESSING


 ***** ROUTINE COMPLETED *****  CP =         6.396


1

 ***** ANSYS - ENGINEERING ANALYSIS SYSTEM  RELEASE 12.1     *****
 ANSYS Academic Research                           
 00416040          VERSION=WINDOWS x64   18:06:18  JUL 11, 2017 CP=      6.396

 Ventricle-r2-Shar-4-16-17--Transient (B5)                                     


          ***** ANSYS RESULTS INTERPRETATION (POST1) *****

 *** NOTE ***                            CP =       6.396   TIME= 18:06:18
 Reading results into the database (SET command) will update the current 
 displacement and force boundary conditions in the database with the     
 values from the results file for that load set.  Note that any          
 subsequent solutions will use these values unless action is taken to    
 either SAVE the current values or not overwrite them (/EXIT,NOSAVE).    

 *** WARNING ***                         CP =       6.396   TIME= 18:06:18
 The XMLO label ENCO is invalid.                                         

 *** WARNING ***                         CP =       6.396   TIME= 18:06:18
 The XMLO label ISO- is invalid.                                         

 Set Output of XML File to ALL.

 Set Output of XML File to:
     PARM,     ,     ,     ,     ,     ,     ,     ,     ,     ,     ,     ,
         ,     ,     ,     ,     ,     ,     ,

 DATABASE WRITTEN ON FILE  parm.xml                                                                                                                                                                                                                                                            

 EXIT THE ANSYS POST1 DATABASE PROCESSOR


 ***** ROUTINE COMPLETED *****  CP =         6.396



 PRINTOUT RESUMED BY /GOP

 *GET  _WALLDONE  FROM  ACTI  ITEM=TIME WALL  VALUE=  18.1050000    

 PARAMETER _PREPTIME =     0.000000000    

 PARAMETER _SOLVTIME =     3.000000000    

 PARAMETER _POSTTIME =     0.000000000    

 PARAMETER _TOTALTIM =     3.000000000    

 ***** END OF INPUT ENCOUNTERED *****

 PURGE ALL SOLUTION AND POST DATA
 SAVE ALL MODEL DATA

 ALL CURRENT ANSYS DATA WRITTEN TO FILE NAME= file.db
  FOR POSSIBLE RESUME FROM THIS POINT


 NUMBER OF WARNING MESSAGES ENCOUNTERED=         10
 NUMBER OF ERROR   MESSAGES ENCOUNTERED=          0

+--------------------- A N S Y S   S T A T I S T I C S ------------------------+

Release: 12.1       UP20091102   Version: WINDOWS x64 
Date Run: 07/11/2017   Time: 18:06
Windows Process ID:         8476

Number of cores:   2 (Shared Memory Parallel)

Job Name: file
Working Directory: C:\Users\ecslogon\Desktop\trail

Elapsed time spent pre-processing model (/PREP7)  :      0.1 seconds
Elapsed time spent solution - preprocessing       :      0.1 seconds
Elapsed time spent computing solution             :      3.0 seconds
Elapsed time spent solution - postprocessing      :      0.0 seconds
Elapsed time spent post-processing model (/POST1) :      0.0 seconds

Equation solver computational rate                :   2441.7 Mflops

+------------------ E N D   A N S Y S   S T A T I S T I C S -------------------+


 *---------------------------------------------------------------------------*
 |                                                                           |
 |                            ANSYS RUN COMPLETED                            |
 |                                                                           |
 |---------------------------------------------------------------------------|
 |                                                                           |
 |            Release 12.1           UP20091102         WINDOWS x64          |
 |                                                                           |
 |---------------------------------------------------------------------------|
 |                                                                           |
 |   Maximum Scratch Memory Used       =    51621544 Words      196.921 MB   |
 |                                                                           |
 |---------------------------------------------------------------------------|
 |                                                                           |
 |        CP Time      (sec) =          6.427       Time  =  18:06:18        |
 |        Elapsed Time (sec) =          5.000       Date  =  07/11/2017      |
 |                                                                           |
 *---------------------------------------------------------------------------*
