/batch
/config,noeldb,1     ! force off writing results to database
*get,_wallstrt,active,,time,wall
! ANSYS input file written by Workbench version 17.2 RELEASE
! File used for geometry attach: E:\Independent Study Slater\Ventricle-r2-Shar-4-16-17_files\dp0\Geom\DM\Geom.agdb
/title,Ventricle-r2-Shar-4-16-17--Transient (B5)
! ****** Begin Custom Load Command Snippet ******
/COM, ACT Extensions:
/COM,     MechanicalDropTest, 2.0
/COM,     f0fd899f-9d88-4f46-8cf1-36bf5c218d65, wbex
/COM,
! ****** End   Custom Load Command Snippet ******
*DIM,_wb_ProjectScratch_dir,string,248
_wb_ProjectScratch_dir(1) = 'E:\Independent Study Slater\Ventricle-r2-Shar-4-16-17_files\dp0\SYS\MECH\'
*DIM,_wb_SolverFiles_dir,string,248
_wb_SolverFiles_dir(1) = 'E:\Independent Study Slater\Ventricle-r2-Shar-4-16-17_files\dp0\SYS\MECH\'
*DIM,_wb_userfiles_dir,string,248
_wb_userfiles_dir(1) = 'E:\Independent Study Slater\Ventricle-r2-Shar-4-16-17_files\user_files\'
/com,--- Data in consistent MKS units. See Solving Units in the help system for more information.
/units,MKS
/nopr
/wb,file,start              !  signify a WB generated input file
/prep7
! Turn off shape checking because checks already performed inside WB mesher.
! See help system for more information.
SHPP,OFF,,NOWARN
/nolist
etcon,set             ! allow ANSYS to choose best KEYOP's for 180x elements
/com,*********** Nodes for the whole assembly ***********
nblock,3,,6678
(1i9,3e20.9e3)
        1   -7.534297122E-003    3.070178087E-002    1.000000000E-003
        2   -3.740812507E-003    4.353538047E-002    1.000000000E-003
        3   -3.740818421E-003    4.192676487E-002    1.000000000E-003
        4   -3.740809664E-003    4.031741165E-002    1.000000000E-003
        5   -3.740787494E-003    3.871025898E-002    1.000000000E-003
        6   -3.741047003E-003    3.709671844E-002    1.000000000E-003
        7   -3.876432389E-003    3.552570226E-002    1.000000000E-003
        8   -4.827849092E-003    3.417788917E-002    1.000000000E-003
        9   -5.919867509E-003    3.287829315E-002    1.000000000E-003
       10   -6.969851288E-003    3.169010378E-002    1.000000000E-003
       11   -7.874429580E-003    3.009845736E-002    1.000000000E-003
       12   -8.307613256E-003    3.015717417E-002    1.000000000E-003
       13   -1.974295477E-002    4.432342012E-002    1.000000000E-003
       14   -1.864813822E-002    4.301865912E-002    1.000000000E-003
       15   -1.755378351E-002    4.171445487E-002    1.000000000E-003
       16   -1.645956961E-002    4.041042058E-002    1.000000000E-003
       17   -1.536539779E-002    3.910643711E-002    1.000000000E-003
       18   -1.427123837E-002    3.780246861E-002    1.000000000E-003
       19   -1.317708255E-002    3.649850446E-002    1.000000000E-003
       20   -1.208578469E-002    3.519796486E-002    1.000000000E-003
! ... 6052 like lines cut
/wb,elem,start            !  set before creation of elements
/com,*********** Elements for Body 1 "valve_area_upper" ***********
et,1,186
keyo,1,2,1          ! set full integration on SOLID186
eblock,19,solid,,46
(19i9)
        1        1        1        1        0        0        0        0       20        0        1        1       23      117       10       46       24       72       37
      145      232      182      143      236      238      276      274      146      231      355      181
        1        1        1        1        0        0        0        0       20        0        2        1       11       12       23       46       36       35       24
      144      184      187      145      271      269      235      236      146      185      188      231
        1        1        1        1        0        0        0        0       20        0        3       12      131      132       23       35       52       53       24
      189      435      233      187      270      313      237      235      188      314      316      231
        1        1        1        1        0        0        0        0       20        0        4       22       23      132      133       25       24       53       54
      227      233      436      230      234      237      315      240      228      231      316      318
        1        1        1        1        0        0        0        0       20        0        5       22      116      117       23       25       73       72       24
      229      421      232      227      241      354      238      234      228      357      355      231
        1        1        1        1        0        0        0        0       20        0        6       21       22      133      134       26       25       54       55
      223      230      437      226      239      240      317      243      224      228      318      320
        1        1        1        1        0        0        0        0       20        0        7       21      115      116       22       26       74       73       25
      225      420      229      223      244      356      241      239      224      359      357      228
        1        1        1        1        0        0        0        0       20        0        8       20       21      134      135       27       26       55       56
      219      226      438      222      242      243      319      246      220      224      320      322
        1        1        1        1        0        0        0        0       20        0        9       20      114      115       21       27       75       74       26
      221      419      225      219      247      358      244      242      220      361      359      224
        1        1        1        1        0        0        0        0       20        0       10       19       20      135      136       28       27       56       57
      215      222      439      218      245      246      321      249      216      220      322      324
! ... 73 like lines cut
!Material Id = {E4BCA289-8C36-4BDD-97E6-D9E8EF522376}
/com,*********** Elements for Body 2 "myocardium" ***********
et,2,186
keyo,2,2,1          ! set full integration on SOLID186
eblock,19,solid,,714
(19i9)
        2        2        2        2        0        0        0        0       20        0       47     1035     2038     2037     2035     1036     1713     1714     1715
     4018     5988     5986     4017     4021     5501     5503     4022     4016     5502     5504     5506
        2        2        2        2        0        0        0        0       20        0       48     1030     1035     2035     2034     1041     1036     1715     1716
     4000     4017     5985     4002     4020     4022     5505     4037     4001     4016     5506     5508
        2        2        2        2        0        0        0        0       20        0       49     1025     1030     2034     2033     1046     1041     1716     1717
     3984     4002     5984     3986     4036     4037     5507     4048     3985     4001     5508     5510
        2        2        2        2        0        0        0        0       20        0       50     1020     1025     2033     2032     1051     1046     1717     1718
     3968     3986     5983     3970     4047     4048     5509     4059     3969     3985     5510     5512
        2        2        2        2        0        0        0        0       20        0       51     1015     1020     2032     2031     1056     1051     1718     1719
     3952     3970     5982     3954     4058     4059     5511     4070     3953     3969     5512     5514
        2        2        2        2        0        0        0        0       20        0       52     1010     1015     2031     2030     1061     1056     1719     1720
     3936     3954     5981     3938     4069     4070     5513     4081     3937     3953     5514     5516
        2        2        2        2        0        0        0        0       20        0       53     1005     1010     2030     2029     1066     1061     1720     1721
     3920     3938     5980     3922     4080     4081     5515     4092     3921     3937     5516     5518
        2        2        2        2        0        0        0        0       20        0       54     1000     1005     2029     2028     1071     1066     1721     1722
     3904     3922     5979     3906     4091     4092     5517     4103     3905     3921     5518     5520
        2        2        2        2        0        0        0        0       20        0       55      995     1000     2028     2027     1076     1071     1722     1723
     3888     3906     5978     3890     4102     4103     5519     4114     3889     3905     5520     5522
        2        2        2        2        0        0        0        0       20        0       56      450      995     2027     2026     1621     1076     1723     1724
     2144     3890     5977     2146     4113     4114     5521     5317     2145     3889     5522     5524
! ... 1409 like lines cut
!Material Id = {3245184E-0984-4306-8A10-1E09C8EF3BDB}
/wb,elem,end               !  done creating elements
/com,*********** Send User Defined Coordinate System(s) ***********
csys,0
toffst,273.15,  ! Temperature offset from absolute zero
/com,*********** Set Reference Temperature ***********
tref,22.
/wb,mat,start              !  starting to send materials
/com,*********** Send Materials ***********
MP,EX,1,700000,	! Pa
MP,NUXY,1,0.4,
MP,DENS,1,1200,	! kg m^-3

MP,EX,2,700000,	! Pa
MP,NUXY,2,0.4,
MP,DENS,2,1200,	! kg m^-3

/wb,mat,end                !  done sending materials
!************************* Model Summary ********************
!valve_area_upper,	myocardium,	matid,	1
!myocardium,	myocardium,	matid,	2
!************************* End Model Summary ********************
! get the diagonal of the bounding box. Needed later for other things
*get,_xmin,node,,mnloc,x
*get,_ymin,node,,mnloc,y
*get,_zmin,node,,mnloc,z
*get,_xmax,node,,mxloc,x
*get,_ymax,node,,mxloc,y
*get,_zmax,node,,mxloc,z
_ASMDIAG=(_xmax-_xmin)*(_xmax-_xmin)+(_ymax-_ymin)*(_ymax-_ymin)+(_zmax-_zmin)*(_zmax-_zmin)
_ASMDIAG=SQRT(_ASMDIAG)
/wb,contact,start          !  starting to send contact
/wb,contact,end            !  done creating contacts
/golist
/wb,load,start             !  starting to send loads
/com,*********** Fixed Supports ***********
CMBLOCK,_FIXEDSU,NODE,       92
(8i10)
        83        84        85        86        87        88       101       102
       103       104       105       106       376       377       378       379
       380       381       382       383       384       386       405       406
       408       409      1708      1709      1710      1711      1712      1713
      1714      1750      1751      1752      1753      1754      1755      1782
      1983      1996      1997      1998      1999      2000      2001      2037
      2038      2039      2040      2041      2042      2043      5491      5492
      5493      5494      5495      5496      5497      5498      5499      5500
      5501      5502      5504      5574      5575      5576      5577      5578
      5579      5580      5581      5582      5583      5584      5585      5639
      5933      5946      5947      5948      5949      5950      5988      5989
      5990      5991      5992      5993
cmsel,s,_FIXEDSU
d,all,all
nsel,all
/com,********* Frictionless Supports Z *********
CMBLOCK,_FRICSUZ,NODE,     5088
(8i10)
         1         2         3         4         5         6         7         8
         9        10        11        12        13        14        15        16
        17        18        19        20        21        22        23        24
        25        26        27        28        29        30        31        32
        33        34        35        36        37        38        39        40
        41        42        43        44        45        46        47        48
        49        50        51        52        53        54        55        56
        57        58        59        60        61        62        63        64
        65        66        67        68        69        70        71        72
        73        74        75        76        77        78        79        80
        81        82        89        90        91        92        93        94
        95        96        97        98        99       100       107       108
       109       110       111       112       113       114       115       116
       117       118       119       120       121       122       123       124
       125       126       127       128       129       130       131       132
       133       134       135       136       137       138       139       140
       141       142       143       144       145       147       148       150
       151       152       153       155       156       157       159       160
       161       163       164       165       167       168       169       171
       172       173       175       176       177       179       180       182
! ... 616 like lines cut

cmsel,s,_FRICSUZ
d,all,uz,0
nsel,all
/com,*********** Create Elastic Support ***********
et,3,154
eblock,10,,,53
(15i9)
      761        3        3        3        0       64      125      103       86      339      407      382      338
      762        3        3        3        0       65      124      125       64      341      429      339      337
      763        3        3        3        0       66      123      124       65      343      428      341      340
      764        3        3        3        0       67      122      123       66      345      427      343      342
      765        3        3        3        0       68      121      122       67      347      426      345      344
      766        3        3        3        0       69      120      121       68      349      425      347      346
      767        3        3        3        0       70      119      120       69      351      424      349      348
      768        3        3        3        0       71      118      119       70      353      423      351      350
      769        3        3        3        0       72      117      118       71      355      422      353      352
      770        3        3        3        0       73      116      117       72      357      421      355      354
      771        3        3        3        0       74      115      116       73      359      420      357      356
      772        3        3        3        0       75      114      115       74      361      419      359      358
      773        3        3        3        0       76      113      114       75      363      418      361      360
      774        3        3        3        0       77      112      113       76      365      417      363      362
      775        3        3        3        0       78      111      112       77      367      416      365      364
      776        3        3        3        0       79      110      111       78      369      415      367      366
      777        3        3        3        0       80      109      110       79      371      414      369      368
      778        3        3        3        0       81      108      109       80      373      413      371      370
      779        3        3        3        0       82      107      108       81      375      412      373      372
      780        3        3        3        0       83      106      107       82      377      411      375      374
! ... 34 like lines cut
esel,s,type,,3
r,3,,,,10000000000000.
esel,all
/com,*********** Define Pressure Using Surface Effect Elements ***********
et,4,154
eblock,10,,,38
(15i9)
      814        4        4        4        0     2089     1626     1834     1917     5324     5323     5741     5865
      815        4        4        4        0     2090     1627     1626     2089     5326     5322     5324     6036
      816        4        4        4        0     2091     1628     1627     2090     5328     5325     5326     6037
      817        4        4        4        0     2092     1629     1628     2091     5330     5327     5328     6038
      818        4        4        4        0     2093     1630     1629     2092     5332     5329     5330     6039
      819        4        4        4        0     2094     1631     1630     2093     5334     5331     5332     6040
      820        4        4        4        0     2095     1632     1631     2094     5336     5333     5334     6041
      821        4        4        4        0     2096     1633     1632     2095     5338     5335     5336     6042
      822        4        4        4        0     2097     1634     1633     2096     5340     5337     5338     6043
      823        4        4        4        0     2098     1635     1634     2097     5342     5339     5340     6044
      824        4        4        4        0     2099     1636     1635     2098     5344     5341     5342     6045
      825        4        4        4        0     2100     1637     1636     2099     5346     5343     5344     6046
      826        4        4        4        0     2101     1638     1637     2100     5348     5345     5346     6047
      827        4        4        4        0     2102     1639     1638     2101     5350     5347     5348     6048
      828        4        4        4        0     2103     1640     1639     2102     5352     5349     5350     6049
      829        4        4        4        0     2104     1641     1640     2103     5354     5351     5352     6050
      830        4        4        4        0     2105     1642     1641     2104     5356     5353     5354     6051
      831        4        4        4        0     2106     1643     1642     2105     5358     5355     5356     6052
      832        4        4        4        0     2107     1644     1643     2106     5360     5357     5358     6053
      833        4        4        4        0     2108     1645     1644     2107     5362     5359     5360     6054
! ... 19 like lines cut
esel,s,type,,4
esel,all

*DIM,_loadvari300,TABLE,3,1,1,TIME,
! Time values
_loadvari300(1,0,1) = 0.
_loadvari300(2,0,1) = 0.1
_loadvari300(3,0,1) = 0.2
! Load values
_loadvari300(1,1,1) = 0.
_loadvari300(2,1,1) = 0.
_loadvari300(3,1,1) = 1000.

/com,*********** Define Pressure Using Surface Effect Elements ***********
et,5,154
eblock,10,,,20
(15i9)
      852        5        5        5        0     1896     1908     1843     1855     5844     5759     5758     5783
      853        5        5        5        0     1908     1909     1842     1843     5856     5757     5756     5759
      854        5        5        5        0     1909     1910     1841     1842     5857     5755     5754     5757
      855        5        5        5        0     1910     1911     1840     1841     5858     5753     5752     5755
      856        5        5        5        0     1911     1912     1839     1840     5859     5751     5750     5753
      857        5        5        5        0     1912     1913     1838     1839     5860     5749     5748     5751
      858        5        5        5        0     1913     1914     1837     1838     5861     5747     5746     5749
      859        5        5        5        0     1914     1915     1836     1837     5862     5745     5744     5747
      860        5        5        5        0     1915     1916     1835     1836     5863     5743     5742     5745
      861        5        5        5        0     1916     1917     1834     1835     5864     5741     5740     5743
      862        5        5        5        0     1854     1824     1926     1907     5721     5722     5855     5781
      863        5        5        5        0     1824     1825     1925     1926     5720     5724     5874     5722
      864        5        5        5        0     1825     1826     1924     1925     5723     5726     5873     5724
      865        5        5        5        0     1826     1827     1923     1924     5725     5728     5872     5726
      866        5        5        5        0     1827     1828     1922     1923     5727     5730     5871     5728
      867        5        5        5        0     1828     1829     1921     1922     5729     5732     5870     5730
      868        5        5        5        0     1829     1830     1920     1921     5731     5734     5869     5732
      869        5        5        5        0     1830     1831     1919     1920     5733     5736     5868     5734
      870        5        5        5        0     1831     1832     1918     1919     5735     5738     5866     5736
      871        5        5        5        0     1832     1833     1927     1918     5737     5739     5867     5738
-1
esel,s,type,,5
esel,all

*DIM,_loadvari302,TABLE,2,1,1,TIME,
! Time values
_loadvari302(1,0,1) = 0.2
_loadvari302(2,0,1) = 0.3
! Load values
_loadvari302(1,1,1) = 0.
_loadvari302(2,1,1) = 1000.

/com,*********** Define Pressure Using Surface Effect Elements ***********
et,6,154
eblock,10,,,22
(15i9)
      872        6        6        6        0     1881     1886     1865     1870     5828     5803     5802     5812
      873        6        6        6        0     1886     1887     1864     1865     5834     5801     5800     5803
      874        6        6        6        0     1887     1888     1863     1864     5835     5799     5798     5801
      875        6        6        6        0     1888     1889     1862     1863     5836     5797     5796     5799
      876        6        6        6        0     1889     1890     1861     1862     5837     5795     5794     5797
      877        6        6        6        0     1890     1891     1860     1861     5838     5793     5792     5795
      878        6        6        6        0     1891     1892     1859     1860     5839     5791     5790     5793
      879        6        6        6        0     1892     1893     1858     1859     5840     5789     5788     5791
      880        6        6        6        0     1893     1894     1857     1858     5841     5787     5786     5789
      881        6        6        6        0     1894     1895     1856     1857     5842     5785     5784     5787
      882        6        6        6        0     1895     1896     1855     1856     5843     5783     5782     5785
      883        6        6        6        0     1907     1897     1853     1854     5846     5780     5779     5781
      884        6        6        6        0     1897     1898     1852     1853     5845     5778     5777     5780
      885        6        6        6        0     1898     1899     1851     1852     5847     5776     5775     5778
      886        6        6        6        0     1899     1900     1850     1851     5848     5774     5773     5776
      887        6        6        6        0     1900     1901     1849     1850     5849     5772     5771     5774
      888        6        6        6        0     1901     1902     1848     1849     5850     5770     5769     5772
      889        6        6        6        0     1902     1903     1847     1848     5851     5768     5767     5770
      890        6        6        6        0     1903     1904     1846     1847     5852     5766     5765     5768
      891        6        6        6        0     1904     1905     1845     1846     5853     5764     5763     5766
      892        6        6        6        0     1905     1906     1844     1845     5854     5762     5760     5764
      893        6        6        6        0     1906     1885     1869     1844     5833     5810     5761     5762
-1
esel,s,type,,6
esel,all

*DIM,_loadvari304,TABLE,3,1,1,TIME,
! Time values
_loadvari304(1,0,1) = 0.
_loadvari304(2,0,1) = 0.3
_loadvari304(3,0,1) = 0.4
! Load values
_loadvari304(1,1,1) = 0.
_loadvari304(2,1,1) = 0.
_loadvari304(3,1,1) = 1000.

/com,*********** Create FSI Flags ***********
CMBLOCK,FSIN_1  ,NODE,      138
(8i10)
      1663      1664      1665      1666      1667      1668      1669      1670
      1671      1672      1673      1674      1675      1676      1677      1678
      1679      1680      1681      1682      1683      1684      1685      1686
      1687      1688      1756      1795      1968      1995      2063      2064
      2065      2066      2067      2068      2069      2070      2071      2072
      2073      2074      2075      2076      2077      2078      2079      2080
      2081      2082      2083      2084      2085      2086      2087      2088
      5397      5398      5399      5400      5401      5402      5403      5404
      5405      5406      5407      5408      5409      5410      5411      5412
      5413      5414      5415      5416      5417      5418      5419      5420
      5421      5422      5423      5424      5425      5426      5427      5428
      5429      5430      5431      5432      5433      5434      5435      5436
      5437      5438      5439      5440      5441      5442      5443      5444
      5445      5446      5447      5448      5449      5587      5665      5918
      5945      6011      6012      6013      6014      6015      6016      6017
      6018      6019      6020      6021      6022      6023      6024      6025
      6026      6027      6028      6029      6030      6031      6032      6033
      6034      6035
SF,FSIN_1,FSIN,1
nsel,all
CMBLOCK,FSIN_2  ,NODE,      131
(8i10)
      1756      1757      1758      1759      1760      1761      1762      1763
      1764      1765      1766      1767      1783      1784      1785      1786
      1787      1788      1789      1790      1791      1792      1793      1794
      1795      1796      1823      1941      1955      1956      1957      1958
      1959      1960      1961      1962      1963      1964      1965      1966
      1967      1968      1984      1985      1986      1987      1988      1989
      1990      1991      1992      1993      1994      1995      5586      5587
      5588      5589      5590      5591      5592      5593      5594      5595
      5596      5597      5598      5599      5600      5601      5602      5603
      5604      5605      5606      5607      5608      5609      5640      5641
      5642      5643      5644      5645      5646      5647      5648      5649
      5650      5651      5652      5653      5654      5655      5656      5657
      5658      5659      5660      5661      5662      5663      5664      5665
      5667      5719      5890      5905      5906      5907      5908      5909
      5910      5911      5912      5913      5914      5915      5916      5917
      5934      5935      5936      5937      5938      5939      5940      5941
      5942      5943      5944
SF,FSIN_2,FSIN,2
nsel,all
CMBLOCK,FSIN_3  ,NODE,      136
(8i10)
      1796      1797      1798      1799      1800      1801      1802      1803
      1804      1805      1806      1807      1808      1809      1810      1811
      1812      1813      1814      1815      1816      1817      1818      1819
      1820      1821      1822      1823      1928      1929      1930      1931
      1932      1933      1934      1935      1936      1937      1938      1939
      1940      1941      1942      1943      1944      1945      1946      1947
      1948      1949      1950      1951      1952      1953      1954      1955
      5666      5667      5668      5669      5670      5671      5672      5673
      5674      5675      5676      5677      5678      5679      5680      5681
      5682      5683      5684      5685      5686      5687      5688      5689
      5690      5691      5692      5693      5694      5695      5696      5697
      5698      5699      5700      5701      5702      5703      5704      5705
      5706      5707      5708      5709      5710      5711      5712      5713
      5714      5715      5716      5717      5718      5719      5876      5877
      5878      5879      5880      5881      5882      5883      5884      5885
      5886      5887      5888      5891      5892      5893      5894      5895
      5896      5897      5898      5899      5900      5901      5902      5903

SF,FSIN_3,FSIN,3
nsel,all
CMBLOCK,FSIN_4  ,NODE,      364
(8i10)
        47        48        49        50        51        52        53        54
        55        56        57        58        59        60        61        62
        63        85        88        89        90        91        92        93
        94        95        96        97        98        99       100       101
       105       126       127       128       129       130       131       132
       133       134       135       136       137       138       139       140
       141       142       302       303       304       305       306       307
       308       309       310       311       312       313       314       315
       316       317       318       319       320       321       322       323
       324       325       326       327       328       329       330       331
       332       333       334       335       336       380       385       386
       387       388       389       390       391       392       393       394
       395       396       397       398       399       400       401       402
       403       404       410       430       431       432       433       434
       435       436       437       438       439       440       441       442
       443       444       445      1689      1690      1691      1692      1693
      1694      1695      1696      1697      1698      1714      1715      1716
      1717      1718      1719      1720      1721      1722      1723      1724
      1725      1726      1727      1728      1729      1730      1731      1732
      1733      1734      1735      1736      1737      1738      1739      1740
! ... 26 like lines cut
SF,FSIN_4,FSIN,4
nsel,all
esel,all
/gst,on,on
fini
*get,_numnode,node,0,count
*get,_numelem,elem,0,count
*get, _MAXELEMNUM, elem, 0, NUM, MAX
*get, _MAXNODENUM, node, 0, NUM, MAX
*get, _MAXELEMTYPE, etyp, 0, NUM, MAX
*get, _MAXREALCONST, real, 0, NUM, MAX
/go
/wb,load,end               !  done creating loads
/com,--- Number of total nodes = %_numnode%
/com,--- Number of contact elements = 133
/com,--- Number of spring elements = 0
/com,--- Number of bearing elements = 0
/com,--- Number of solid elements = 760
/com,--- Number of condensed parts = 0
/com,--- Number of total elements = %_numelem%
*get,_wallbsol,active,,time,wall
/com,****************************************************************************
/com,*************************    SOLUTION       ********************************
/com,****************************************************************************
/solu
antype,4                   ! transient analysis
nlgeom,on                  ! Turn on Large Deformation Effects
kbc,1                      ! stepped BC's
eqsl,sparse,,,,,1
cntr,print,1               ! print out contact info and also make no initial contact an error
rstsuppress,none           ! don't suppress anything due to presense of FSI loading
dmpoption,emat,no             ! Don't combine emat file for DANSYS
dmpoption,esav,no             ! Don't combine esav file for DANSYS
cmwrite                    ! Export components due to presence of FSI loading
trnopt,full,,,,,hht        ! HHT time integration method
tintp,0.1	! Numerical Damping
nldiag,cont,iter           ! print out contact info each equilibrium iteration
rescontrol,define,last,last,,dele	   ! Program Controlled
/com,****************************************************
/com,******************* SOLVE FOR LS 1 OF 1 ****************
esel,s,type,,4
nsle
sf,all,pres,%_loadvari300%
esel,s,type,,5
nsle
sf,all,pres,%_loadvari302%
esel,s,type,,6
nsle
sf,all,pres,%_loadvari304%
nsel,all
esel,all
esel,all
/nopr
/gopr
autots,off                 ! User turned off automatic time stepping
nsub,1,1,1
time,1.
timint,on                  ! Turn on time integration effects
outres,erase
outres,all,none
outres,nsol,all
outres,rsol,all
outres,strs,all
outres,epel,all
outres,eppl,all
outres,v,all
outres,a,all
stabilize,off                   ! Stabilization turned OFF by user
nldiag,nrre,on,4
! *********** WB SOLVE COMMAND ***********
! check interactive state
*get,ANSINTER_,active,,int
*if,ANSINTER_,ne,0,then
/eof
*endif
solve
/com *************** Write FE CONNECTORS ********* 
CEWRITE,file,ce,,INTE
/com,****************************************************
/com,*************** FINISHED SOLVE FOR LS 1 *************
*get,_wallasol,active,,time,wall
/nopr
*get,_numnode,node,0,count
*get,_numelem,elem,0,count
*get, _MAXELEMNUM, elem, 0, NUM, MAX
*get, _MAXNODENUM, node, 0, NUM, MAX,,,INTERNAL
*get, _MAXELEMTYPE, etyp, 0, NUM, MAX
*get, _MAXREALCONST, real, 0, NUM, MAX
/gopr
/post1
xmlo,ENCODING,ISO-8859-1
xmlo,parm
/xml,parm,xml
fini
/gopr
*get,_walldone,active,,time,wall
_preptime=(_wallbsol-_wallstrt)*3600
_solvtime=(_wallasol-_wallbsol)*3600
_posttime=(_walldone-_wallasol)*3600
_totaltim=(_walldone-_wallstrt)*3600
/wb,file,end               ! done with WB generated input
